
  Mrv1921 08232120312D          

 38 40  0  0  0  0            999 V2000
    2.1434   -5.3625    0.0000 C   0  0  0  0  0  0  0  0  0  0  0  0
    1.4289   -4.9500    0.0000 C   0  0  0  0  0  0  0  0  0  0  0  0
    0.7145   -5.3625    0.0000 C   0  0  0  0  0  0  0  0  0  0  0  0
    0.7145   -6.1875    0.0000 H   0  0  0  0  0  0  0  0  0  0  0  0
    0.0000   -4.9500    0.0000 C   0  0  0  0  0  0  0  0  0  0  0  0
   -0.7145   -5.3625    0.0000 H   0  0  0  0  0  0  0  0  0  0  0  0
    0.0000   -4.1250    0.0000 N   0  0  0  0  0  0  0  0  0  0  0  0
    0.7145   -3.7125    0.0000 C   0  0  0  0  0  0  0  0  0  0  0  0
    0.7145   -2.8875    0.0000 N   0  0  0  0  0  0  0  0  0  0  0  0
    1.4289   -2.4750    0.0000 C   0  0  0  0  0  0  0  0  0  0  0  0
    2.1434   -2.8875    0.0000 O   0  0  0  0  0  0  0  0  0  0  0  0
    1.4289   -1.6500    0.0000 C   0  0  0  0  0  0  0  0  0  0  0  0
    0.7145   -1.2375    0.0000 C   0  0  0  0  0  0  0  0  0  0  0  0
   -0.1091   -1.2855    0.0000 H   0  0  0  0  0  0  0  0  0  0  0  0
    0.2611   -1.9268    0.0000 H   0  0  0  0  0  0  0  0  0  0  0  0
    0.7145   -0.4125    0.0000 C   0  0  0  0  0  0  0  0  0  0  0  0
    0.2611    0.2768    0.0000 H   0  0  0  0  0  0  0  0  0  0  0  0
   -0.1091   -0.3645    0.0000 H   0  0  0  0  0  0  0  0  0  0  0  0
    1.4289    0.0000    0.0000 O   0  0  0  0  0  0  0  0  0  0  0  0
    2.1434   -0.4125    0.0000 C   0  0  0  0  0  0  0  0  0  0  0  0
    2.8579    0.0000    0.0000 C   0  0  0  0  0  0  0  0  0  0  0  0
    3.5724   -0.4125    0.0000 C   0  0  0  0  0  0  0  0  0  0  0  0
    3.5724   -1.2375    0.0000 C   0  0  0  0  0  0  0  0  0  0  0  0
    4.2868   -1.6500    0.0000 Cl  0  0  0  0  0  0  0  0  0  0  0  0
    2.8579   -1.6500    0.0000 C   0  0  0  0  0  0  0  0  0  0  0  0
    3.2704   -2.3645    0.0000 H   0  0  0  0  0  0  0  0  0  0  0  0
    2.1434   -1.2375    0.0000 C   0  0  0  0  0  0  0  0  0  0  0  0
    4.2868   -0.0000    0.0000 H   0  0  0  0  0  0  0  0  0  0  0  0
    2.8579    0.8250    0.0000 H   0  0  0  0  0  0  0  0  0  0  0  0
    2.1434   -2.0625    0.0000 H   0  0  0  0  0  0  0  0  0  0  0  0
    0.0000   -2.4750    0.0000 H   0  0  0  0  0  0  0  0  0  0  0  0
    1.4289   -4.1250    0.0000 C   0  0  0  0  0  0  0  0  0  0  0  0
    2.1434   -3.7125    0.0000 N   0  0  0  0  0  0  0  0  0  0  0  0
    2.5968   -4.4018    0.0000 H   0  0  0  0  0  0  0  0  0  0  0  0
    2.9670   -3.7605    0.0000 H   0  0  0  0  0  0  0  0  0  0  0  0
    1.7309   -6.0770    0.0000 H   0  0  0  0  0  0  0  0  0  0  0  0
    2.8579   -5.7750    0.0000 H   0  0  0  0  0  0  0  0  0  0  0  0
    2.5559   -4.6480    0.0000 H   0  0  0  0  0  0  0  0  0  0  0  0
  1  2  1  0  0  0  0
  2  3  2  0  0  0  0
  3  4  1  0  0  0  0
  3  5  1  0  0  0  0
  5  6  1  0  0  0  0
  5  7  2  0  0  0  0
  7  8  1  0  0  0  0
  8  9  1  0  0  0  0
  9 10  1  0  0  0  0
 10 11  2  0  0  0  0
 10 12  1  0  0  0  0
 12 13  1  0  0  0  0
 13 14  1  0  0  0  0
 13 15  1  0  0  0  0
 13 16  1  0  0  0  0
 16 17  1  0  0  0  0
 16 18  1  0  0  0  0
 16 19  1  0  0  0  0
 19 20  1  0  0  0  0
 20 21  2  0  0  0  0
 21 22  1  0  0  0  0
 22 23  2  0  0  0  0
 23 24  1  0  0  0  0
 23 25  1  0  0  0  0
 25 26  1  0  0  0  0
 25 27  2  0  0  0  0
 12 27  1  0  0  0  0
 20 27  1  0  0  0  0
 22 28  1  0  0  0  0
 21 29  1  0  0  0  0
 12 30  1  0  0  0  0
  9 31  1  0  0  0  0
  8 32  2  0  0  0  0
  2 32  1  0  0  0  0
 32 33  1  0  0  0  0
 33 34  1  0  0  0  0
 33 35  1  0  0  0  0
  1 36  1  0  0  0  0
  1 37  1  0  0  0  0
  1 38  1  0  0  0  0
M  END
> <Potency>
71.5685890453825

> <pIC50>
4.145277544695305

> <Outcome>
Inactive

> <is_active>
0

$$$$

  Mrv1921 08232120312D          

 38 40  0  0  0  0            999 V2000
    2.1434   -3.7125    0.0000 C   0  0  0  0  0  0  0  0  0  0  0  0
    1.4289   -4.1250    0.0000 C   0  0  0  0  0  0  0  0  0  0  0  0
    1.4289   -4.9500    0.0000 C   0  0  0  0  0  0  0  0  0  0  0  0
    1.8414   -5.6645    0.0000 H   0  0  0  0  0  0  0  0  0  0  0  0
    0.7145   -5.3625    0.0000 C   0  0  0  0  0  0  0  0  0  0  0  0
    0.7145   -6.1875    0.0000 H   0  0  0  0  0  0  0  0  0  0  0  0
    0.0000   -4.9500    0.0000 N   0  0  0  0  0  0  0  0  0  0  0  0
    0.0000   -4.1250    0.0000 C   0  0  0  0  0  0  0  0  0  0  0  0
   -0.7145   -3.7125    0.0000 N   0  0  0  0  0  0  0  0  0  0  0  0
   -0.7145   -2.8875    0.0000 H   0  0  0  0  0  0  0  0  0  0  0  0
   -1.4289   -4.1250    0.0000 H   0  0  0  0  0  0  0  0  0  0  0  0
    0.7145   -3.7125    0.0000 C   0  0  0  0  0  0  0  0  0  0  0  0
    0.7145   -2.8875    0.0000 N   0  0  0  0  0  0  0  0  0  0  0  0
    1.4289   -2.4750    0.0000 C   0  0  0  0  0  0  0  0  0  0  0  0
    2.1434   -2.8875    0.0000 O   0  0  0  0  0  0  0  0  0  0  0  0
    1.4289   -1.6500    0.0000 C   0  0  0  0  0  0  0  0  0  0  0  0
    0.7145   -1.2375    0.0000 C   0  0  0  0  0  0  0  0  0  0  0  0
   -0.1091   -1.2855    0.0000 H   0  0  0  0  0  0  0  0  0  0  0  0
    0.2611   -1.9268    0.0000 H   0  0  0  0  0  0  0  0  0  0  0  0
    0.7145   -0.4125    0.0000 C   0  0  0  0  0  0  0  0  0  0  0  0
    0.2611    0.2768    0.0000 H   0  0  0  0  0  0  0  0  0  0  0  0
   -0.1091   -0.3645    0.0000 H   0  0  0  0  0  0  0  0  0  0  0  0
    1.4289    0.0000    0.0000 O   0  0  0  0  0  0  0  0  0  0  0  0
    2.1434   -0.4125    0.0000 C   0  0  0  0  0  0  0  0  0  0  0  0
    2.8579    0.0000    0.0000 C   0  0  0  0  0  0  0  0  0  0  0  0
    3.5724   -0.4125    0.0000 C   0  0  0  0  0  0  0  0  0  0  0  0
    3.5724   -1.2375    0.0000 C   0  0  0  0  0  0  0  0  0  0  0  0
    4.2868   -1.6500    0.0000 Cl  0  0  0  0  0  0  0  0  0  0  0  0
    2.8579   -1.6500    0.0000 C   0  0  0  0  0  0  0  0  0  0  0  0
    3.2704   -2.3645    0.0000 H   0  0  0  0  0  0  0  0  0  0  0  0
    2.1434   -1.2375    0.0000 C   0  0  0  0  0  0  0  0  0  0  0  0
    4.2868   -0.0000    0.0000 H   0  0  0  0  0  0  0  0  0  0  0  0
    2.8579    0.8250    0.0000 H   0  0  0  0  0  0  0  0  0  0  0  0
    2.1434   -2.0625    0.0000 H   0  0  0  0  0  0  0  0  0  0  0  0
    0.0000   -2.4750    0.0000 H   0  0  0  0  0  0  0  0  0  0  0  0
    2.1434   -4.5375    0.0000 H   0  0  0  0  0  0  0  0  0  0  0  0
    2.8579   -4.1250    0.0000 H   0  0  0  0  0  0  0  0  0  0  0  0
    2.8579   -3.3000    0.0000 H   0  0  0  0  0  0  0  0  0  0  0  0
  1  2  1  0  0  0  0
  2  3  2  0  0  0  0
  3  4  1  0  0  0  0
  3  5  1  0  0  0  0
  5  6  1  0  0  0  0
  5  7  2  0  0  0  0
  7  8  1  0  0  0  0
  8  9  1  0  0  0  0
  9 10  1  0  0  0  0
  9 11  1  0  0  0  0
  8 12  2  0  0  0  0
  2 12  1  0  0  0  0
 12 13  1  0  0  0  0
 13 14  1  0  0  0  0
 14 15  2  0  0  0  0
 14 16  1  0  0  0  0
 16 17  1  0  0  0  0
 17 18  1  0  0  0  0
 17 19  1  0  0  0  0
 17 20  1  0  0  0  0
 20 21  1  0  0  0  0
 20 22  1  0  0  0  0
 20 23  1  0  0  0  0
 23 24  1  0  0  0  0
 24 25  2  0  0  0  0
 25 26  1  0  0  0  0
 26 27  2  0  0  0  0
 27 28  1  0  0  0  0
 27 29  1  0  0  0  0
 29 30  1  0  0  0  0
 29 31  2  0  0  0  0
 16 31  1  0  0  0  0
 24 31  1  0  0  0  0
 26 32  1  0  0  0  0
 25 33  1  0  0  0  0
 16 34  1  0  0  0  0
 13 35  1  0  0  0  0
  1 36  1  0  0  0  0
  1 37  1  0  0  0  0
  1 38  1  0  0  0  0
M  END
> <Potency>
69.5447932876528

> <pIC50>
4.157735379418694

> <Outcome>
Inactive

> <is_active>
0

$$$$

  Mrv1921 08232120312D          

 70 75  0  0  0  0            999 V2000
   -0.3346    1.2872    0.0000 C   0  0  0  0  0  0  0  0  0  0  0  0
    0.1957    1.9192    0.0000 C   0  0  0  0  0  0  0  0  0  0  0  0
    0.7688    1.3257    0.0000 N   0  0  0  0  0  0  0  0  0  0  0  0
    1.5858    1.4405    0.0000 C   0  0  0  0  0  0  0  0  0  0  0  0
    1.9731    2.1690    0.0000 H   0  0  0  0  0  0  0  0  0  0  0  0
    1.9474    0.6990    0.0000 C   0  0  0  0  0  0  0  0  0  0  0  0
    2.7599    0.5558    0.0000 C   0  0  0  0  0  0  0  0  0  0  0  0
    3.0421   -0.2195    0.0000 N   0  0  0  0  0  0  0  0  0  0  0  0
    3.8545   -0.3627    0.0000 C   0  0  0  0  0  0  0  0  0  0  0  0
    4.3848    0.2692    0.0000 C   0  0  0  0  0  0  0  0  0  0  0  0
    4.9151   -0.3627    0.0000 C   0  0  0  0  0  0  0  0  0  0  0  0
    4.6330   -1.1380    0.0000 O   0  0  0  0  0  0  0  0  0  0  0  0
    5.7276   -0.2195    0.0000 N   0  0  0  0  0  0  0  0  0  0  0  0
    6.2579   -0.8515    0.0000 C   0  0  0  0  0  0  0  0  0  0  0  0
    7.0704   -0.7082    0.0000 C   0  0  0  0  0  0  0  0  0  0  0  0
    7.7121   -0.1898    0.0000 H   0  0  0  0  0  0  0  0  0  0  0  0
    7.6007   -1.3402    0.0000 N   0  0  0  0  0  0  0  0  0  0  0  0
    7.3185   -2.1154    0.0000 C   0  0  0  0  0  0  0  0  0  0  0  0
    7.8488   -2.7474    0.0000 H   0  0  0  0  0  0  0  0  0  0  0  0
    6.5060   -2.2587    0.0000 C   0  0  0  0  0  0  0  0  0  0  0  0
    6.2239   -3.0340    0.0000 C   0  0  0  0  0  0  0  0  0  0  0  0
    5.4114   -3.1772    0.0000 C   0  0  0  0  0  0  0  0  0  0  0  0
    4.8811   -2.5452    0.0000 C   0  0  0  0  0  0  0  0  0  0  0  0
    5.1633   -1.7700    0.0000 C   0  0  0  0  0  0  0  0  0  0  0  0
    5.4454   -0.9947    0.0000 H   0  0  0  0  0  0  0  0  0  0  0  0
    5.9757   -1.6267    0.0000 C   0  0  0  0  0  0  0  0  0  0  0  0
    4.0686   -2.6885    0.0000 H   0  0  0  0  0  0  0  0  0  0  0  0
    5.1292   -3.9525    0.0000 H   0  0  0  0  0  0  0  0  0  0  0  0
    6.7542   -3.6659    0.0000 H   0  0  0  0  0  0  0  0  0  0  0  0
    6.5245   -0.0060    0.0000 H   0  0  0  0  0  0  0  0  0  0  0  0
    3.6704    0.6817    0.0000 C   0  0  0  0  0  0  0  0  0  0  0  0
    3.5121   -0.1279    0.0000 H   0  0  0  0  0  0  0  0  0  0  0  0
    4.3848    1.0942    0.0000 H   0  0  0  0  0  0  0  0  0  0  0  0
    3.6704    1.5067    0.0000 C   0  0  0  0  0  0  0  0  0  0  0  0
    3.7033    2.3311    0.0000 H   0  0  0  0  0  0  0  0  0  0  0  0
    2.9911    1.9749    0.0000 H   0  0  0  0  0  0  0  0  0  0  0  0
    4.3848    1.9192    0.0000 O   0  0  0  0  0  0  0  0  0  0  0  0
    5.0993    1.5067    0.0000 C   0  0  0  0  0  0  0  0  0  0  0  0
    5.8138    1.9192    0.0000 C   0  0  0  0  0  0  0  0  0  0  0  0
    6.5282    1.5067    0.0000 C   0  0  0  0  0  0  0  0  0  0  0  0
    6.5282    0.6817    0.0000 C   0  0  0  0  0  0  0  0  0  0  0  0
    7.2427    0.2692    0.0000 Cl  0  0  0  0  0  0  0  0  0  0  0  0
    5.8138    0.2692    0.0000 C   0  0  0  0  0  0  0  0  0  0  0  0
    5.0661   -0.0794    0.0000 H   0  0  0  0  0  0  0  0  0  0  0  0
    5.0993    0.6817    0.0000 C   0  0  0  0  0  0  0  0  0  0  0  0
    7.2427    1.9192    0.0000 H   0  0  0  0  0  0  0  0  0  0  0  0
    5.8138    2.7442    0.0000 H   0  0  0  0  0  0  0  0  0  0  0  0
    3.7587   -1.1822    0.0000 H   0  0  0  0  0  0  0  0  0  0  0  0
    4.4546   -0.9289    0.0000 H   0  0  0  0  0  0  0  0  0  0  0  0
    2.5118   -0.8515    0.0000 H   0  0  0  0  0  0  0  0  0  0  0  0
    3.1482    1.2836    0.0000 H   0  0  0  0  0  0  0  0  0  0  0  0
    2.3988    1.2975    0.0000 H   0  0  0  0  0  0  0  0  0  0  0  0
    1.3540    0.1259    0.0000 C   0  0  0  0  0  0  0  0  0  0  0  0
    1.4688   -0.6910    0.0000 H   0  0  0  0  0  0  0  0  0  0  0  0
    0.6255    0.5132    0.0000 N   0  0  0  0  0  0  0  0  0  0  0  0
   -0.4883    2.3805    0.0000 C   0  0  0  0  0  0  0  0  0  0  0  0
   -1.2155    2.7700    0.0000 H   0  0  0  0  0  0  0  0  0  0  0  0
   -0.3759    1.5632    0.0000 H   0  0  0  0  0  0  0  0  0  0  0  0
   -0.2609    3.1735    0.0000 C   0  0  0  0  0  0  0  0  0  0  0  0
   -0.4041    3.9860    0.0000 H   0  0  0  0  0  0  0  0  0  0  0  0
   -1.0145    3.5091    0.0000 H   0  0  0  0  0  0  0  0  0  0  0  0
    0.5636    3.2023    0.0000 S   0  0  0  0  0  0  0  0  0  0  0  0
    0.4488    4.0193    0.0000 O   0  0  0  0  0  0  0  0  0  0  0  0
    1.3641    3.4019    0.0000 O   0  0  0  0  0  0  0  0  0  0  0  0
    0.8458    2.4271    0.0000 C   0  0  0  0  0  0  0  0  0  0  0  0
    1.4393    1.8540    0.0000 H   0  0  0  0  0  0  0  0  0  0  0  0
    1.6528    2.5986    0.0000 H   0  0  0  0  0  0  0  0  0  0  0  0
   -0.9666    1.8175    0.0000 H   0  0  0  0  0  0  0  0  0  0  0  0
   -0.8649    0.6552    0.0000 H   0  0  0  0  0  0  0  0  0  0  0  0
    0.2974    0.7569    0.0000 H   0  0  0  0  0  0  0  0  0  0  0  0
  1  2  1  0  0  0  0
  2  3  1  0  0  0  0
  3  4  1  0  0  0  0
  4  5  1  0  0  0  0
  4  6  2  0  0  0  0
  6  7  1  0  0  0  0
  7  8  1  0  0  0  0
  8  9  1  0  0  0  0
  9 10  1  0  0  0  0
 10 11  1  0  0  0  0
 11 12  2  0  0  0  0
 11 13  1  0  0  0  0
 13 14  1  0  0  0  0
 14 15  2  0  0  0  0
 15 16  1  0  0  0  0
 15 17  1  0  0  0  0
 17 18  2  0  0  0  0
 18 19  1  0  0  0  0
 18 20  1  0  0  0  0
 20 21  2  0  0  0  0
 21 22  1  0  0  0  0
 22 23  2  0  0  0  0
 23 24  1  0  0  0  0
 24 25  1  0  0  0  0
 24 26  2  0  0  0  0
 14 26  1  0  0  0  0
 20 26  1  0  0  0  0
 23 27  1  0  0  0  0
 22 28  1  0  0  0  0
 21 29  1  0  0  0  0
 13 30  1  0  0  0  0
 10 31  1  0  0  0  0
 31 32  1  0  0  0  0
 31 33  1  0  0  0  0
 31 34  1  0  0  0  0
 34 35  1  0  0  0  0
 34 36  1  0  0  0  0
 34 37  1  0  0  0  0
 37 38  1  0  0  0  0
 38 39  2  0  0  0  0
 39 40  1  0  0  0  0
 40 41  2  0  0  0  0
 41 42  1  0  0  0  0
 41 43  1  0  0  0  0
 43 44  1  0  0  0  0
 43 45  2  0  0  0  0
 10 45  1  0  0  0  0
 38 45  1  0  0  0  0
 40 46  1  0  0  0  0
 39 47  1  0  0  0  0
  9 48  1  0  0  0  0
  9 49  1  0  0  0  0
  8 50  1  0  0  0  0
  7 51  1  0  0  0  0
  7 52  1  0  0  0  0
  6 53  1  0  0  0  0
 53 54  1  0  0  0  0
 53 55  2  0  0  0  0
  3 55  1  0  0  0  0
  2 56  1  0  0  0  0
 56 57  1  0  0  0  0
 56 58  1  0  0  0  0
 56 59  1  0  0  0  0
 59 60  1  0  0  0  0
 59 61  1  0  0  0  0
 59 62  1  0  0  0  0
 62 63  2  0  0  0  0
 62 64  2  0  0  0  0
 62 65  1  0  0  0  0
  2 65  1  0  0  0  0
 65 66  1  0  0  0  0
 65 67  1  0  0  0  0
  1 68  1  0  0  0  0
  1 69  1  0  0  0  0
  1 70  1  0  0  0  0
M  END
> <Potency>
24.4132571565715

> <pIC50>
4.612374274218304

> <Outcome>
Inactive

> <is_active>
0

$$$$

  Mrv1921 08232120312D          

 67 72  0  0  0  0            999 V2000
    1.1808   -3.0572    0.0000 O   0  0  0  0  0  0  0  0  0  0  0  0
    0.8986   -2.2820    0.0000 C   0  0  0  0  0  0  0  0  0  0  0  0
    0.0862   -2.1387    0.0000 N   0  0  0  0  0  0  0  0  0  0  0  0
   -0.4441   -2.7707    0.0000 C   0  0  0  0  0  0  0  0  0  0  0  0
   -0.1620   -3.5460    0.0000 C   0  0  0  0  0  0  0  0  0  0  0  0
    0.6505   -3.6892    0.0000 H   0  0  0  0  0  0  0  0  0  0  0  0
   -0.6923   -4.1779    0.0000 N   0  0  0  0  0  0  0  0  0  0  0  0
   -1.5047   -4.0347    0.0000 C   0  0  0  0  0  0  0  0  0  0  0  0
   -2.0350   -4.6667    0.0000 H   0  0  0  0  0  0  0  0  0  0  0  0
   -1.7869   -3.2594    0.0000 C   0  0  0  0  0  0  0  0  0  0  0  0
   -2.5994   -3.1162    0.0000 C   0  0  0  0  0  0  0  0  0  0  0  0
   -2.8815   -2.3409    0.0000 C   0  0  0  0  0  0  0  0  0  0  0  0
   -2.3512   -1.7089    0.0000 C   0  0  0  0  0  0  0  0  0  0  0  0
   -1.5388   -1.8522    0.0000 C   0  0  0  0  0  0  0  0  0  0  0  0
   -1.0085   -1.2202    0.0000 H   0  0  0  0  0  0  0  0  0  0  0  0
   -1.2566   -2.6275    0.0000 C   0  0  0  0  0  0  0  0  0  0  0  0
   -2.6334   -0.9337    0.0000 H   0  0  0  0  0  0  0  0  0  0  0  0
   -3.6940   -2.1977    0.0000 H   0  0  0  0  0  0  0  0  0  0  0  0
   -3.1297   -3.7482    0.0000 H   0  0  0  0  0  0  0  0  0  0  0  0
   -0.1960   -1.3635    0.0000 H   0  0  0  0  0  0  0  0  0  0  0  0
    1.4289   -1.6500    0.0000 C   0  0  0  0  0  0  0  0  0  0  0  0
    1.9592   -2.2820    0.0000 C   0  0  0  0  0  0  0  0  0  0  0  0
    2.7717   -2.1387    0.0000 N   0  0  0  0  0  0  0  0  0  0  0  0
    3.3020   -2.7707    0.0000 C   0  0  0  0  0  0  0  0  0  0  0  0
    3.0198   -3.5460    0.0000 C   0  0  0  0  0  0  0  0  0  0  0  0
    2.2268   -3.7734    0.0000 C   0  0  0  0  0  0  0  0  0  0  0  0
    1.4066   -3.8620    0.0000 H   0  0  0  0  0  0  0  0  0  0  0  0
    2.1980   -4.5979    0.0000 N   0  0  0  0  0  0  0  0  0  0  0  0
    2.9733   -4.8800    0.0000 N   0  0  0  0  0  0  0  0  0  0  0  0
    3.2007   -5.6731    0.0000 C   0  0  0  0  0  0  0  0  0  0  0  0
    3.9759   -5.9552    0.0000 C   0  0  0  0  0  0  0  0  0  0  0  0
    4.7964   -5.8690    0.0000 H   0  0  0  0  0  0  0  0  0  0  0  0
    4.3632   -5.2268    0.0000 H   0  0  0  0  0  0  0  0  0  0  0  0
    3.9471   -6.7797    0.0000 C   0  0  0  0  0  0  0  0  0  0  0  0
    4.2827   -7.5334    0.0000 H   0  0  0  0  0  0  0  0  0  0  0  0
    4.7596   -6.9230    0.0000 H   0  0  0  0  0  0  0  0  0  0  0  0
    3.1541   -7.0071    0.0000 S   0  0  0  0  0  0  0  0  0  0  0  0
    3.4631   -7.7721    0.0000 O   0  0  0  0  0  0  0  0  0  0  0  0
    2.4256   -7.3944    0.0000 O   0  0  0  0  0  0  0  0  0  0  0  0
    2.6927   -6.3232    0.0000 C   0  0  0  0  0  0  0  0  0  0  0  0
    1.8719   -6.4058    0.0000 H   0  0  0  0  0  0  0  0  0  0  0  0
    2.1488   -6.9434    0.0000 H   0  0  0  0  0  0  0  0  0  0  0  0
    2.3908   -5.5156    0.0000 H   0  0  0  0  0  0  0  0  0  0  0  0
    3.4812   -4.2299    0.0000 C   0  0  0  0  0  0  0  0  0  0  0  0
    4.3057   -4.2587    0.0000 H   0  0  0  0  0  0  0  0  0  0  0  0
    3.9429   -3.2902    0.0000 H   0  0  0  0  0  0  0  0  0  0  0  0
    4.1267   -2.7487    0.0000 H   0  0  0  0  0  0  0  0  0  0  0  0
    3.5686   -1.9252    0.0000 H   0  0  0  0  0  0  0  0  0  0  0  0
    1.3592   -2.8481    0.0000 H   0  0  0  0  0  0  0  0  0  0  0  0
    2.0550   -3.1014    0.0000 H   0  0  0  0  0  0  0  0  0  0  0  0
    0.7145   -1.2375    0.0000 C   0  0  0  0  0  0  0  0  0  0  0  0
    0.5562   -2.0472    0.0000 H   0  0  0  0  0  0  0  0  0  0  0  0
    1.4289   -0.8250    0.0000 H   0  0  0  0  0  0  0  0  0  0  0  0
    0.7145   -0.4125    0.0000 C   0  0  0  0  0  0  0  0  0  0  0  0
    0.2611    0.2768    0.0000 H   0  0  0  0  0  0  0  0  0  0  0  0
   -0.1091   -0.3645    0.0000 H   0  0  0  0  0  0  0  0  0  0  0  0
    1.4289    0.0000    0.0000 O   0  0  0  0  0  0  0  0  0  0  0  0
    2.1434   -0.4125    0.0000 C   0  0  0  0  0  0  0  0  0  0  0  0
    2.8579    0.0000    0.0000 C   0  0  0  0  0  0  0  0  0  0  0  0
    3.5724   -0.4125    0.0000 C   0  0  0  0  0  0  0  0  0  0  0  0
    3.5724   -1.2375    0.0000 C   0  0  0  0  0  0  0  0  0  0  0  0
    4.2868   -1.6500    0.0000 Cl  0  0  0  0  0  0  0  0  0  0  0  0
    2.8579   -1.6500    0.0000 C   0  0  0  0  0  0  0  0  0  0  0  0
    2.1102   -1.9987    0.0000 H   0  0  0  0  0  0  0  0  0  0  0  0
    2.1434   -1.2375    0.0000 C   0  0  0  0  0  0  0  0  0  0  0  0
    4.2868   -0.0000    0.0000 H   0  0  0  0  0  0  0  0  0  0  0  0
    2.8579    0.8250    0.0000 H   0  0  0  0  0  0  0  0  0  0  0  0
  1  2  2  0  0  0  0
  2  3  1  0  0  0  0
  3  4  1  0  0  0  0
  4  5  2  0  0  0  0
  5  6  1  0  0  0  0
  5  7  1  0  0  0  0
  7  8  2  0  0  0  0
  8  9  1  0  0  0  0
  8 10  1  0  0  0  0
 10 11  2  0  0  0  0
 11 12  1  0  0  0  0
 12 13  2  0  0  0  0
 13 14  1  0  0  0  0
 14 15  1  0  0  0  0
 14 16  2  0  0  0  0
  4 16  1  0  0  0  0
 10 16  1  0  0  0  0
 13 17  1  0  0  0  0
 12 18  1  0  0  0  0
 11 19  1  0  0  0  0
  3 20  1  0  0  0  0
  2 21  1  0  0  0  0
 21 22  1  0  0  0  0
 22 23  1  0  0  0  0
 23 24  1  0  0  0  0
 24 25  1  0  0  0  0
 25 26  1  0  0  0  0
 26 27  1  0  0  0  0
 26 28  2  0  0  0  0
 28 29  1  0  0  0  0
 29 30  1  0  0  0  0
 30 31  1  0  0  0  0
 31 32  1  0  0  0  0
 31 33  1  0  0  0  0
 31 34  1  0  0  0  0
 34 35  1  0  0  0  0
 34 36  1  0  0  0  0
 34 37  1  0  0  0  0
 37 38  2  0  0  0  0
 37 39  2  0  0  0  0
 37 40  1  0  0  0  0
 30 40  1  0  0  0  0
 40 41  1  0  0  0  0
 40 42  1  0  0  0  0
 30 43  1  0  0  0  0
 29 44  1  0  0  0  0
 25 44  2  0  0  0  0
 44 45  1  0  0  0  0
 24 46  1  0  0  0  0
 24 47  1  0  0  0  0
 23 48  1  0  0  0  0
 22 49  1  0  0  0  0
 22 50  1  0  0  0  0
 21 51  1  0  0  0  0
 51 52  1  0  0  0  0
 51 53  1  0  0  0  0
 51 54  1  0  0  0  0
 54 55  1  0  0  0  0
 54 56  1  0  0  0  0
 54 57  1  0  0  0  0
 57 58  1  0  0  0  0
 58 59  2  0  0  0  0
 59 60  1  0  0  0  0
 60 61  2  0  0  0  0
 61 62  1  0  0  0  0
 61 63  1  0  0  0  0
 63 64  1  0  0  0  0
 63 65  2  0  0  0  0
 21 65  1  0  0  0  0
 58 65  1  0  0  0  0
 60 66  1  0  0  0  0
 59 67  1  0  0  0  0
M  END
> <Potency>
11.6714685790764

> <pIC50>
4.932874494797676

> <Outcome>
Inactive

> <is_active>
0

$$$$

  Mrv1921 08232120312D          

 69 73  0  0  0  0            999 V2000
   -0.5539   -2.1479    0.0000 C   0  0  0  0  0  0  0  0  0  0  0  0
   -0.0236   -1.5159    0.0000 O   0  0  0  0  0  0  0  0  0  0  0  0
    0.7888   -1.6592    0.0000 C   0  0  0  0  0  0  0  0  0  0  0  0
    1.3191   -1.0272    0.0000 C   0  0  0  0  0  0  0  0  0  0  0  0
    1.0370   -0.2520    0.0000 H   0  0  0  0  0  0  0  0  0  0  0  0
    2.1316   -1.1705    0.0000 C   0  0  0  0  0  0  0  0  0  0  0  0
    2.6619   -0.5385    0.0000 H   0  0  0  0  0  0  0  0  0  0  0  0
    2.4138   -1.9457    0.0000 C   0  0  0  0  0  0  0  0  0  0  0  0
    3.2262   -2.0890    0.0000 C   0  0  0  0  0  0  0  0  0  0  0  0
    3.7565   -1.4570    0.0000 N   0  0  0  0  0  0  0  0  0  0  0  0
    4.5690   -1.6002    0.0000 C   0  0  0  0  0  0  0  0  0  0  0  0
    5.0993   -0.9683    0.0000 C   0  0  0  0  0  0  0  0  0  0  0  0
    5.6296   -1.6002    0.0000 C   0  0  0  0  0  0  0  0  0  0  0  0
    6.4421   -1.4570    0.0000 O   0  0  0  0  0  0  0  0  0  0  0  0
    5.3474   -2.3755    0.0000 N   0  0  0  0  0  0  0  0  0  0  0  0
    5.8777   -3.0075    0.0000 C   0  0  0  0  0  0  0  0  0  0  0  0
    6.6902   -2.8642    0.0000 C   0  0  0  0  0  0  0  0  0  0  0  0
    6.9724   -2.0890    0.0000 H   0  0  0  0  0  0  0  0  0  0  0  0
    7.2205   -3.4962    0.0000 N   0  0  0  0  0  0  0  0  0  0  0  0
    6.9383   -4.2715    0.0000 C   0  0  0  0  0  0  0  0  0  0  0  0
    7.4686   -4.9034    0.0000 H   0  0  0  0  0  0  0  0  0  0  0  0
    6.1259   -4.4147    0.0000 C   0  0  0  0  0  0  0  0  0  0  0  0
    5.8437   -5.1900    0.0000 C   0  0  0  0  0  0  0  0  0  0  0  0
    5.0312   -5.3332    0.0000 C   0  0  0  0  0  0  0  0  0  0  0  0
    4.5009   -4.7012    0.0000 C   0  0  0  0  0  0  0  0  0  0  0  0
    4.7831   -3.9260    0.0000 C   0  0  0  0  0  0  0  0  0  0  0  0
    3.9995   -3.6679    0.0000 H   0  0  0  0  0  0  0  0  0  0  0  0
    5.5956   -3.7827    0.0000 C   0  0  0  0  0  0  0  0  0  0  0  0
    3.6885   -4.8445    0.0000 H   0  0  0  0  0  0  0  0  0  0  0  0
    4.7491   -6.1085    0.0000 H   0  0  0  0  0  0  0  0  0  0  0  0
    6.3740   -5.8219    0.0000 H   0  0  0  0  0  0  0  0  0  0  0  0
    5.0177   -3.1318    0.0000 H   0  0  0  0  0  0  0  0  0  0  0  0
    4.3848   -0.5558    0.0000 C   0  0  0  0  0  0  0  0  0  0  0  0
    4.2265   -1.3654    0.0000 H   0  0  0  0  0  0  0  0  0  0  0  0
    5.0993   -0.1433    0.0000 H   0  0  0  0  0  0  0  0  0  0  0  0
    4.3848    0.2692    0.0000 C   0  0  0  0  0  0  0  0  0  0  0  0
    3.9315    0.9585    0.0000 H   0  0  0  0  0  0  0  0  0  0  0  0
    3.5612    0.3172    0.0000 H   0  0  0  0  0  0  0  0  0  0  0  0
    5.0993    0.6817    0.0000 O   0  0  0  0  0  0  0  0  0  0  0  0
    5.8138    0.2692    0.0000 C   0  0  0  0  0  0  0  0  0  0  0  0
    6.5282    0.6817    0.0000 C   0  0  0  0  0  0  0  0  0  0  0  0
    7.2427    0.2692    0.0000 C   0  0  0  0  0  0  0  0  0  0  0  0
    7.2427   -0.5558    0.0000 C   0  0  0  0  0  0  0  0  0  0  0  0
    7.9572   -0.9683    0.0000 Cl  0  0  0  0  0  0  0  0  0  0  0  0
    6.5282   -0.9683    0.0000 C   0  0  0  0  0  0  0  0  0  0  0  0
    7.2040   -1.4415    0.0000 H   0  0  0  0  0  0  0  0  0  0  0  0
    5.8138   -0.5558    0.0000 C   0  0  0  0  0  0  0  0  0  0  0  0
    7.9572    0.6817    0.0000 H   0  0  0  0  0  0  0  0  0  0  0  0
    6.5282    1.5067    0.0000 H   0  0  0  0  0  0  0  0  0  0  0  0
    4.4732   -2.4197    0.0000 H   0  0  0  0  0  0  0  0  0  0  0  0
    5.1691   -2.1664    0.0000 H   0  0  0  0  0  0  0  0  0  0  0  0
    3.4744   -0.6817    0.0000 H   0  0  0  0  0  0  0  0  0  0  0  0
    3.1304   -2.9084    0.0000 H   0  0  0  0  0  0  0  0  0  0  0  0
    3.8263   -2.6551    0.0000 H   0  0  0  0  0  0  0  0  0  0  0  0
    1.8835   -2.5777    0.0000 C   0  0  0  0  0  0  0  0  0  0  0  0
    2.1656   -3.3529    0.0000 H   0  0  0  0  0  0  0  0  0  0  0  0
    1.0710   -2.4344    0.0000 C   0  0  0  0  0  0  0  0  0  0  0  0
    0.5407   -3.0664    0.0000 O   0  0  0  0  0  0  0  0  0  0  0  0
    0.8229   -3.8417    0.0000 C   0  0  0  0  0  0  0  0  0  0  0  0
    0.2926   -4.4737    0.0000 C   0  0  0  0  0  0  0  0  0  0  0  0
   -0.5199   -4.3304    0.0000 N   0  0  0  0  0  0  0  0  0  0  0  0
   -0.8021   -3.5552    0.0000 H   0  0  0  0  0  0  0  0  0  0  0  0
   -1.0502   -4.9624    0.0000 H   0  0  0  0  0  0  0  0  0  0  0  0
    0.5747   -5.2489    0.0000 O   0  0  0  0  0  0  0  0  0  0  0  0
    1.4846   -4.3343    0.0000 H   0  0  0  0  0  0  0  0  0  0  0  0
    1.6132   -3.6051    0.0000 H   0  0  0  0  0  0  0  0  0  0  0  0
   -1.1859   -1.6176    0.0000 H   0  0  0  0  0  0  0  0  0  0  0  0
   -1.0842   -2.7799    0.0000 H   0  0  0  0  0  0  0  0  0  0  0  0
    0.0780   -2.6782    0.0000 H   0  0  0  0  0  0  0  0  0  0  0  0
  1  2  1  0  0  0  0
  2  3  1  0  0  0  0
  3  4  2  0  0  0  0
  4  5  1  0  0  0  0
  4  6  1  0  0  0  0
  6  7  1  0  0  0  0
  6  8  2  0  0  0  0
  8  9  1  0  0  0  0
  9 10  1  0  0  0  0
 10 11  1  0  0  0  0
 11 12  1  0  0  0  0
 12 13  1  0  0  0  0
 13 14  2  0  0  0  0
 13 15  1  0  0  0  0
 15 16  1  0  0  0  0
 16 17  2  0  0  0  0
 17 18  1  0  0  0  0
 17 19  1  0  0  0  0
 19 20  2  0  0  0  0
 20 21  1  0  0  0  0
 20 22  1  0  0  0  0
 22 23  2  0  0  0  0
 23 24  1  0  0  0  0
 24 25  2  0  0  0  0
 25 26  1  0  0  0  0
 26 27  1  0  0  0  0
 26 28  2  0  0  0  0
 16 28  1  0  0  0  0
 22 28  1  0  0  0  0
 25 29  1  0  0  0  0
 24 30  1  0  0  0  0
 23 31  1  0  0  0  0
 15 32  1  0  0  0  0
 12 33  1  0  0  0  0
 33 34  1  0  0  0  0
 33 35  1  0  0  0  0
 33 36  1  0  0  0  0
 36 37  1  0  0  0  0
 36 38  1  0  0  0  0
 36 39  1  0  0  0  0
 39 40  1  0  0  0  0
 40 41  2  0  0  0  0
 41 42  1  0  0  0  0
 42 43  2  0  0  0  0
 43 44  1  0  0  0  0
 43 45  1  0  0  0  0
 45 46  1  0  0  0  0
 45 47  2  0  0  0  0
 12 47  1  0  0  0  0
 40 47  1  0  0  0  0
 42 48  1  0  0  0  0
 41 49  1  0  0  0  0
 11 50  1  0  0  0  0
 11 51  1  0  0  0  0
 10 52  1  0  0  0  0
  9 53  1  0  0  0  0
  9 54  1  0  0  0  0
  8 55  1  0  0  0  0
 55 56  1  0  0  0  0
 55 57  2  0  0  0  0
  3 57  1  0  0  0  0
 57 58  1  0  0  0  0
 58 59  1  0  0  0  0
 59 60  1  0  0  0  0
 60 61  1  0  0  0  0
 61 62  1  0  0  0  0
 61 63  1  0  0  0  0
 60 64  2  0  0  0  0
 59 65  1  0  0  0  0
 59 66  1  0  0  0  0
  1 67  1  0  0  0  0
  1 68  1  0  0  0  0
  1 69  1  0  0  0  0
M  END
> <Potency>
11.5240061883109

> <pIC50>
4.938396517178456

> <Outcome>
Inactive

> <is_active>
0

$$$$

  Mrv1921 08232120312D          

 36 39  0  0  0  0            999 V2000
    2.1434   -2.8875    0.0000 O   0  0  0  0  0  0  0  0  0  0  0  0
    1.4289   -2.4750    0.0000 C   0  0  0  0  0  0  0  0  0  0  0  0
    0.7145   -2.8875    0.0000 N   0  0  0  0  0  0  0  0  0  0  0  0
    0.7145   -3.7125    0.0000 C   0  0  0  0  0  0  0  0  0  0  0  0
    1.4289   -4.1250    0.0000 C   0  0  0  0  0  0  0  0  0  0  0  0
    2.1434   -3.7125    0.0000 H   0  0  0  0  0  0  0  0  0  0  0  0
    1.4289   -4.9500    0.0000 N   0  0  0  0  0  0  0  0  0  0  0  0
    0.7145   -5.3625    0.0000 C   0  0  0  0  0  0  0  0  0  0  0  0
    0.7145   -6.1875    0.0000 H   0  0  0  0  0  0  0  0  0  0  0  0
    0.0000   -4.9500    0.0000 C   0  0  0  0  0  0  0  0  0  0  0  0
   -0.7145   -5.3625    0.0000 C   0  0  0  0  0  0  0  0  0  0  0  0
   -1.4289   -4.9500    0.0000 C   0  0  0  0  0  0  0  0  0  0  0  0
   -1.4289   -4.1250    0.0000 C   0  0  0  0  0  0  0  0  0  0  0  0
   -0.7145   -3.7125    0.0000 C   0  0  0  0  0  0  0  0  0  0  0  0
   -0.7145   -2.8875    0.0000 H   0  0  0  0  0  0  0  0  0  0  0  0
    0.0000   -4.1250    0.0000 C   0  0  0  0  0  0  0  0  0  0  0  0
   -2.1434   -3.7125    0.0000 H   0  0  0  0  0  0  0  0  0  0  0  0
   -2.1434   -5.3625    0.0000 H   0  0  0  0  0  0  0  0  0  0  0  0
   -0.7145   -6.1875    0.0000 H   0  0  0  0  0  0  0  0  0  0  0  0
    0.0000   -2.4750    0.0000 H   0  0  0  0  0  0  0  0  0  0  0  0
    1.4289   -1.6500    0.0000 C   0  0  0  0  0  0  0  0  0  0  0  0
    0.7145   -1.2375    0.0000 C   0  0  0  0  0  0  0  0  0  0  0  0
    0.0000   -1.6500    0.0000 H   0  0  0  0  0  0  0  0  0  0  0  0
    0.7145   -0.4125    0.0000 C   0  0  0  0  0  0  0  0  0  0  0  0
    0.0000    0.0000    0.0000 H   0  0  0  0  0  0  0  0  0  0  0  0
    1.4289    0.0000    0.0000 N   0  0  0  0  0  0  0  0  0  0  0  0
    2.1434   -0.4125    0.0000 C   0  0  0  0  0  0  0  0  0  0  0  0
    2.8579    0.0000    0.0000 C   0  0  0  0  0  0  0  0  0  0  0  0
    3.5724   -0.4125    0.0000 C   0  0  0  0  0  0  0  0  0  0  0  0
    4.2868   -0.0000    0.0000 Cl  0  0  0  0  0  0  0  0  0  0  0  0
    3.5724   -1.2375    0.0000 C   0  0  0  0  0  0  0  0  0  0  0  0
    4.2868   -1.6500    0.0000 Cl  0  0  0  0  0  0  0  0  0  0  0  0
    2.8579   -1.6500    0.0000 C   0  0  0  0  0  0  0  0  0  0  0  0
    2.8579   -2.4750    0.0000 H   0  0  0  0  0  0  0  0  0  0  0  0
    2.1434   -1.2375    0.0000 C   0  0  0  0  0  0  0  0  0  0  0  0
    2.8579    0.8250    0.0000 H   0  0  0  0  0  0  0  0  0  0  0  0
  1  2  2  0  0  0  0
  2  3  1  0  0  0  0
  3  4  1  0  0  0  0
  4  5  2  0  0  0  0
  5  6  1  0  0  0  0
  5  7  1  0  0  0  0
  7  8  2  0  0  0  0
  8  9  1  0  0  0  0
  8 10  1  0  0  0  0
 10 11  2  0  0  0  0
 11 12  1  0  0  0  0
 12 13  2  0  0  0  0
 13 14  1  0  0  0  0
 14 15  1  0  0  0  0
 14 16  2  0  0  0  0
  4 16  1  0  0  0  0
 10 16  1  0  0  0  0
 13 17  1  0  0  0  0
 12 18  1  0  0  0  0
 11 19  1  0  0  0  0
  3 20  1  0  0  0  0
  2 21  1  0  0  0  0
 21 22  2  0  0  0  0
 22 23  1  0  0  0  0
 22 24  1  0  0  0  0
 24 25  1  0  0  0  0
 24 26  2  0  0  0  0
 26 27  1  0  0  0  0
 27 28  2  0  0  0  0
 28 29  1  0  0  0  0
 29 30  1  0  0  0  0
 29 31  2  0  0  0  0
 31 32  1  0  0  0  0
 31 33  1  0  0  0  0
 33 34  1  0  0  0  0
 33 35  2  0  0  0  0
 21 35  1  0  0  0  0
 27 35  1  0  0  0  0
 28 36  1  0  0  0  0
M  END
> <Potency>
28.1092605178634

> <pIC50>
4.551150579409837

> <Outcome>
Inactive

> <is_active>
0

$$$$

  Mrv1921 08232120312D          

 37 38  0  0  0  0            999 V2000
    1.3993    8.1781    0.0000 O   0  0  0  0  0  0  0  0  0  0  0  0
    2.2220    8.1164    0.0000 C   0  0  0  0  0  0  0  0  0  0  0  0
    2.6867    8.7981    0.0000 C   0  0  0  0  0  0  0  0  0  0  0  0
    2.3288    9.5414    0.0000 Cl  0  0  0  0  0  0  0  0  0  0  0  0
    3.3943    8.3737    0.0000 H   0  0  0  0  0  0  0  0  0  0  0  0
    3.4496    9.1122    0.0000 H   0  0  0  0  0  0  0  0  0  0  0  0
    2.5800    7.3731    0.0000 N   0  0  0  0  0  0  0  0  0  0  0  0
    3.4050    7.3731    0.0000 C   0  0  0  0  0  0  0  0  0  0  0  0
    4.0500    7.8875    0.0000 H   0  0  0  0  0  0  0  0  0  0  0  0
    3.4050    8.1981    0.0000 H   0  0  0  0  0  0  0  0  0  0  0  0
    3.9193    6.7281    0.0000 C   0  0  0  0  0  0  0  0  0  0  0  0
    4.7237    6.5445    0.0000 H   0  0  0  0  0  0  0  0  0  0  0  0
    4.5644    7.2425    0.0000 H   0  0  0  0  0  0  0  0  0  0  0  0
    3.7358    5.9238    0.0000 C   0  0  0  0  0  0  0  0  0  0  0  0
    4.0937    5.1805    0.0000 H   0  0  0  0  0  0  0  0  0  0  0  0
    4.5401    5.7402    0.0000 H   0  0  0  0  0  0  0  0  0  0  0  0
    2.9925    5.5658    0.0000 N   0  0  0  0  0  0  0  0  0  0  0  0
    2.9925    4.7408    0.0000 S   0  0  0  0  0  0  0  0  0  0  0  0
    2.1675    4.7408    0.0000 O   0  0  0  0  0  0  0  0  0  0  0  0
    3.8175    4.7408    0.0000 O   0  0  0  0  0  0  0  0  0  0  0  0
    2.9925    3.9158    0.0000 C   0  0  0  0  0  0  0  0  0  0  0  0
    3.7069    3.5033    0.0000 C   0  0  0  0  0  0  0  0  0  0  0  0
    4.4214    3.9158    0.0000 H   0  0  0  0  0  0  0  0  0  0  0  0
    3.7069    2.6783    0.0000 C   0  0  0  0  0  0  0  0  0  0  0  0
    4.4214    2.2658    0.0000 H   0  0  0  0  0  0  0  0  0  0  0  0
    2.9925    2.2658    0.0000 C   0  0  0  0  0  0  0  0  0  0  0  0
    2.9925    1.4408    0.0000 F   0  0  0  0  0  0  0  0  0  0  0  0
    2.2780    2.6783    0.0000 C   0  0  0  0  0  0  0  0  0  0  0  0
    1.5635    2.2658    0.0000 H   0  0  0  0  0  0  0  0  0  0  0  0
    2.2780    3.5033    0.0000 C   0  0  0  0  0  0  0  0  0  0  0  0
    1.5635    3.9158    0.0000 H   0  0  0  0  0  0  0  0  0  0  0  0
    2.2492    5.9238    0.0000 C   0  0  0  0  0  0  0  0  0  0  0  0
    1.4448    5.7402    0.0000 H   0  0  0  0  0  0  0  0  0  0  0  0
    1.8912    5.1805    0.0000 H   0  0  0  0  0  0  0  0  0  0  0  0
    2.0656    6.7281    0.0000 C   0  0  0  0  0  0  0  0  0  0  0  0
    1.4206    7.2425    0.0000 H   0  0  0  0  0  0  0  0  0  0  0  0
    1.2613    6.5445    0.0000 H   0  0  0  0  0  0  0  0  0  0  0  0
  1  2  2  0  0  0  0
  2  3  1  0  0  0  0
  3  4  1  0  0  0  0
  3  5  1  0  0  0  0
  3  6  1  0  0  0  0
  2  7  1  0  0  0  0
  7  8  1  0  0  0  0
  8  9  1  0  0  0  0
  8 10  1  0  0  0  0
  8 11  1  0  0  0  0
 11 12  1  0  0  0  0
 11 13  1  0  0  0  0
 11 14  1  0  0  0  0
 14 15  1  0  0  0  0
 14 16  1  0  0  0  0
 14 17  1  0  0  0  0
 17 18  1  0  0  0  0
 18 19  2  0  0  0  0
 18 20  2  0  0  0  0
 18 21  1  0  0  0  0
 21 22  2  0  0  0  0
 22 23  1  0  0  0  0
 22 24  1  0  0  0  0
 24 25  1  0  0  0  0
 24 26  2  0  0  0  0
 26 27  1  0  0  0  0
 26 28  1  0  0  0  0
 28 29  1  0  0  0  0
 28 30  2  0  0  0  0
 21 30  1  0  0  0  0
 30 31  1  0  0  0  0
 17 32  1  0  0  0  0
 32 33  1  0  0  0  0
 32 34  1  0  0  0  0
 32 35  1  0  0  0  0
  7 35  1  0  0  0  0
 35 36  1  0  0  0  0
 35 37  1  0  0  0  0
M  END
> <Potency>
43.9987144366107

> <pIC50>
4.3565600126329596

> <Outcome>
Inactive

> <is_active>
0

$$$$

  Mrv1921 08232120312D          

 30 32  0  0  0  0            999 V2000
    1.8500    2.0625    0.0000 O   0  0  0  0  0  0  0  0  0  0  0  0
    2.5645    2.4750    0.0000 C   0  0  0  0  0  0  0  0  0  0  0  0
    2.5645    3.3000    0.0000 C   0  0  0  0  0  0  0  0  0  0  0  0
    1.8500    3.7125    0.0000 C   0  0  0  0  0  0  0  0  0  0  0  0
    1.1355    3.3000    0.0000 C   0  0  0  0  0  0  0  0  0  0  0  0
    1.1355    2.4750    0.0000 H   0  0  0  0  0  0  0  0  0  0  0  0
    0.4210    3.7125    0.0000 C   0  0  0  0  0  0  0  0  0  0  0  0
   -0.2934    3.3000    0.0000 H   0  0  0  0  0  0  0  0  0  0  0  0
    0.4210    4.5375    0.0000 C   0  0  0  0  0  0  0  0  0  0  0  0
   -0.2934    4.9500    0.0000 H   0  0  0  0  0  0  0  0  0  0  0  0
    1.1355    4.9500    0.0000 C   0  0  0  0  0  0  0  0  0  0  0  0
    1.1355    5.7750    0.0000 Cl  0  0  0  0  0  0  0  0  0  0  0  0
    1.8500    4.5375    0.0000 C   0  0  0  0  0  0  0  0  0  0  0  0
    2.5645    4.9500    0.0000 H   0  0  0  0  0  0  0  0  0  0  0  0
    3.3881    3.3480    0.0000 H   0  0  0  0  0  0  0  0  0  0  0  0
    3.0178    3.9893    0.0000 H   0  0  0  0  0  0  0  0  0  0  0  0
    3.2789    2.0625    0.0000 N   0  0  0  0  0  0  0  0  0  0  0  0
    3.2789    1.2375    0.0000 C   0  0  0  0  0  0  0  0  0  0  0  0
    3.9934    0.8250    0.0000 C   0  0  0  0  0  0  0  0  0  0  0  0
    4.7079    1.2375    0.0000 H   0  0  0  0  0  0  0  0  0  0  0  0
    3.9934    0.0000    0.0000 N   0  0  0  0  0  0  0  0  0  0  0  0
    3.2789   -0.4125    0.0000 C   0  0  0  0  0  0  0  0  0  0  0  0
    3.2789   -1.2375    0.0000 H   0  0  0  0  0  0  0  0  0  0  0  0
    2.5645    0.0000    0.0000 C   0  0  0  0  0  0  0  0  0  0  0  0
    1.7798   -0.2549    0.0000 C   0  0  0  0  0  0  0  0  0  0  0  0
    1.2949    0.4125    0.0000 N   0  0  0  0  0  0  0  0  0  0  0  0
    1.7798    1.0799    0.0000 O   0  0  0  0  0  0  0  0  0  0  0  0
    2.5645    0.8250    0.0000 C   0  0  0  0  0  0  0  0  0  0  0  0
    1.5249   -1.0396    0.0000 H   0  0  0  0  0  0  0  0  0  0  0  0
    3.9934    2.4750    0.0000 H   0  0  0  0  0  0  0  0  0  0  0  0
  1  2  2  0  0  0  0
  2  3  1  0  0  0  0
  3  4  1  0  0  0  0
  4  5  2  0  0  0  0
  5  6  1  0  0  0  0
  5  7  1  0  0  0  0
  7  8  1  0  0  0  0
  7  9  2  0  0  0  0
  9 10  1  0  0  0  0
  9 11  1  0  0  0  0
 11 12  1  0  0  0  0
 11 13  2  0  0  0  0
  4 13  1  0  0  0  0
 13 14  1  0  0  0  0
  3 15  1  0  0  0  0
  3 16  1  0  0  0  0
  2 17  1  0  0  0  0
 17 18  1  0  0  0  0
 18 19  1  0  0  0  0
 19 20  1  0  0  0  0
 19 21  2  0  0  0  0
 21 22  1  0  0  0  0
 22 23  1  0  0  0  0
 22 24  2  0  0  0  0
 24 25  1  0  0  0  0
 25 26  2  0  0  0  0
 26 27  1  0  0  0  0
 27 28  1  0  0  0  0
 18 28  2  0  0  0  0
 24 28  1  0  0  0  0
 25 29  1  0  0  0  0
 17 30  1  0  0  0  0
M  END
> <Potency>
23.9366000986946

> <pIC50>
4.620937535768978

> <Outcome>
Inactive

> <is_active>
0

$$$$

  Mrv1921 08232120312D          

 72 76  0  0  0  0            999 V2000
   -2.9614   -3.7411    0.0000 C   0  0  0  0  0  0  0  0  0  0  0  0
   -2.1489   -3.5978    0.0000 N   0  0  0  0  0  0  0  0  0  0  0  0
   -1.8668   -2.8226    0.0000 C   0  0  0  0  0  0  0  0  0  0  0  0
   -2.3971   -2.1906    0.0000 O   0  0  0  0  0  0  0  0  0  0  0  0
   -1.0543   -2.6793    0.0000 C   0  0  0  0  0  0  0  0  0  0  0  0
   -0.7721   -1.9040    0.0000 O   0  0  0  0  0  0  0  0  0  0  0  0
    0.0403   -1.7608    0.0000 C   0  0  0  0  0  0  0  0  0  0  0  0
    0.3225   -0.9855    0.0000 C   0  0  0  0  0  0  0  0  0  0  0  0
   -0.2078   -0.3536    0.0000 H   0  0  0  0  0  0  0  0  0  0  0  0
    1.1350   -0.8423    0.0000 C   0  0  0  0  0  0  0  0  0  0  0  0
    1.4171   -0.0670    0.0000 H   0  0  0  0  0  0  0  0  0  0  0  0
    1.6653   -1.4743    0.0000 C   0  0  0  0  0  0  0  0  0  0  0  0
    2.4777   -1.3310    0.0000 C   0  0  0  0  0  0  0  0  0  0  0  0
    2.7599   -0.5558    0.0000 N   0  0  0  0  0  0  0  0  0  0  0  0
    3.5724   -0.4125    0.0000 C   0  0  0  0  0  0  0  0  0  0  0  0
    4.1027   -1.0445    0.0000 C   0  0  0  0  0  0  0  0  0  0  0  0
    4.6330   -0.4125    0.0000 C   0  0  0  0  0  0  0  0  0  0  0  0
    5.4454   -0.5558    0.0000 O   0  0  0  0  0  0  0  0  0  0  0  0
    4.3508    0.3627    0.0000 N   0  0  0  0  0  0  0  0  0  0  0  0
    3.5383    0.5060    0.0000 C   0  0  0  0  0  0  0  0  0  0  0  0
    3.0080   -0.1260    0.0000 C   0  0  0  0  0  0  0  0  0  0  0  0
    2.7259    0.6493    0.0000 H   0  0  0  0  0  0  0  0  0  0  0  0
    2.1956    0.0173    0.0000 N   0  0  0  0  0  0  0  0  0  0  0  0
    1.9134    0.7925    0.0000 C   0  0  0  0  0  0  0  0  0  0  0  0
    1.1009    0.9358    0.0000 H   0  0  0  0  0  0  0  0  0  0  0  0
    2.4437    1.4245    0.0000 C   0  0  0  0  0  0  0  0  0  0  0  0
    2.1615    2.1998    0.0000 C   0  0  0  0  0  0  0  0  0  0  0  0
    2.6918    2.8317    0.0000 C   0  0  0  0  0  0  0  0  0  0  0  0
    3.5043    2.6885    0.0000 C   0  0  0  0  0  0  0  0  0  0  0  0
    3.7865    1.9132    0.0000 C   0  0  0  0  0  0  0  0  0  0  0  0
    4.5989    1.7700    0.0000 H   0  0  0  0  0  0  0  0  0  0  0  0
    3.2562    1.2813    0.0000 C   0  0  0  0  0  0  0  0  0  0  0  0
    4.0346    3.3205    0.0000 H   0  0  0  0  0  0  0  0  0  0  0  0
    2.4097    3.6070    0.0000 H   0  0  0  0  0  0  0  0  0  0  0  0
    1.3491    2.3430    0.0000 H   0  0  0  0  0  0  0  0  0  0  0  0
    4.8811    0.9947    0.0000 H   0  0  0  0  0  0  0  0  0  0  0  0
    3.3882   -1.4570    0.0000 C   0  0  0  0  0  0  0  0  0  0  0  0
    4.1027   -1.8695    0.0000 H   0  0  0  0  0  0  0  0  0  0  0  0
    3.6704   -0.6817    0.0000 H   0  0  0  0  0  0  0  0  0  0  0  0
    3.3882   -2.2820    0.0000 C   0  0  0  0  0  0  0  0  0  0  0  0
    2.7089   -2.7502    0.0000 H   0  0  0  0  0  0  0  0  0  0  0  0
    3.4211   -3.1063    0.0000 H   0  0  0  0  0  0  0  0  0  0  0  0
    4.1027   -2.6945    0.0000 O   0  0  0  0  0  0  0  0  0  0  0  0
    4.8171   -2.2820    0.0000 C   0  0  0  0  0  0  0  0  0  0  0  0
    5.5316   -2.6945    0.0000 C   0  0  0  0  0  0  0  0  0  0  0  0
    6.2461   -2.2820    0.0000 C   0  0  0  0  0  0  0  0  0  0  0  0
    6.2461   -1.4570    0.0000 C   0  0  0  0  0  0  0  0  0  0  0  0
    6.9605   -1.0445    0.0000 Cl  0  0  0  0  0  0  0  0  0  0  0  0
    5.5316   -1.0445    0.0000 C   0  0  0  0  0  0  0  0  0  0  0  0
    6.2074   -0.5713    0.0000 H   0  0  0  0  0  0  0  0  0  0  0  0
    4.8171   -1.4570    0.0000 C   0  0  0  0  0  0  0  0  0  0  0  0
    6.9605   -2.6945    0.0000 H   0  0  0  0  0  0  0  0  0  0  0  0
    5.5316   -3.5195    0.0000 H   0  0  0  0  0  0  0  0  0  0  0  0
    4.3422   -0.1160    0.0000 H   0  0  0  0  0  0  0  0  0  0  0  0
    3.2902   -1.1877    0.0000 H   0  0  0  0  0  0  0  0  0  0  0  0
    1.9538   -0.7312    0.0000 H   0  0  0  0  0  0  0  0  0  0  0  0
    2.1166   -2.0728    0.0000 H   0  0  0  0  0  0  0  0  0  0  0  0
    2.8661   -2.0589    0.0000 H   0  0  0  0  0  0  0  0  0  0  0  0
    1.3831   -2.2495    0.0000 C   0  0  0  0  0  0  0  0  0  0  0  0
    1.5514   -3.0572    0.0000 H   0  0  0  0  0  0  0  0  0  0  0  0
    0.5706   -2.3928    0.0000 C   0  0  0  0  0  0  0  0  0  0  0  0
    0.2885   -3.1680    0.0000 O   0  0  0  0  0  0  0  0  0  0  0  0
   -0.5240   -3.3113    0.0000 C   0  0  0  0  0  0  0  0  0  0  0  0
   -0.6673   -4.1237    0.0000 H   0  0  0  0  0  0  0  0  0  0  0  0
   -0.1115   -4.0257    0.0000 H   0  0  0  0  0  0  0  0  0  0  0  0
   -0.2418   -2.5360    0.0000 H   0  0  0  0  0  0  0  0  0  0  0  0
   -1.3365   -3.4545    0.0000 H   0  0  0  0  0  0  0  0  0  0  0  0
   -1.5846   -2.0473    0.0000 H   0  0  0  0  0  0  0  0  0  0  0  0
   -1.6186   -4.2298    0.0000 H   0  0  0  0  0  0  0  0  0  0  0  0
   -3.1047   -2.9286    0.0000 H   0  0  0  0  0  0  0  0  0  0  0  0
   -3.7739   -3.8843    0.0000 H   0  0  0  0  0  0  0  0  0  0  0  0
   -2.8182   -4.5535    0.0000 H   0  0  0  0  0  0  0  0  0  0  0  0
  1  2  1  0  0  0  0
  2  3  1  0  0  0  0
  3  4  2  0  0  0  0
  3  5  1  0  0  0  0
  5  6  1  0  0  0  0
  6  7  1  0  0  0  0
  7  8  2  0  0  0  0
  8  9  1  0  0  0  0
  8 10  1  0  0  0  0
 10 11  1  0  0  0  0
 10 12  2  0  0  0  0
 12 13  1  0  0  0  0
 13 14  1  0  0  0  0
 14 15  1  0  0  0  0
 15 16  1  0  0  0  0
 16 17  1  0  0  0  0
 17 18  2  0  0  0  0
 17 19  1  0  0  0  0
 19 20  1  0  0  0  0
 20 21  2  0  0  0  0
 21 22  1  0  0  0  0
 21 23  1  0  0  0  0
 23 24  2  0  0  0  0
 24 25  1  0  0  0  0
 24 26  1  0  0  0  0
 26 27  2  0  0  0  0
 27 28  1  0  0  0  0
 28 29  2  0  0  0  0
 29 30  1  0  0  0  0
 30 31  1  0  0  0  0
 30 32  2  0  0  0  0
 20 32  1  0  0  0  0
 26 32  1  0  0  0  0
 29 33  1  0  0  0  0
 28 34  1  0  0  0  0
 27 35  1  0  0  0  0
 19 36  1  0  0  0  0
 16 37  1  0  0  0  0
 37 38  1  0  0  0  0
 37 39  1  0  0  0  0
 37 40  1  0  0  0  0
 40 41  1  0  0  0  0
 40 42  1  0  0  0  0
 40 43  1  0  0  0  0
 43 44  1  0  0  0  0
 44 45  2  0  0  0  0
 45 46  1  0  0  0  0
 46 47  2  0  0  0  0
 47 48  1  0  0  0  0
 47 49  1  0  0  0  0
 49 50  1  0  0  0  0
 49 51  2  0  0  0  0
 16 51  1  0  0  0  0
 44 51  1  0  0  0  0
 46 52  1  0  0  0  0
 45 53  1  0  0  0  0
 15 54  1  0  0  0  0
 15 55  1  0  0  0  0
 14 56  1  0  0  0  0
 13 57  1  0  0  0  0
 13 58  1  0  0  0  0
 12 59  1  0  0  0  0
 59 60  1  0  0  0  0
 59 61  2  0  0  0  0
  7 61  1  0  0  0  0
 61 62  1  0  0  0  0
 62 63  1  0  0  0  0
 63 64  1  0  0  0  0
 63 65  1  0  0  0  0
 63 66  1  0  0  0  0
  5 67  1  0  0  0  0
  5 68  1  0  0  0  0
  2 69  1  0  0  0  0
  1 70  1  0  0  0  0
  1 71  1  0  0  0  0
  1 72  1  0  0  0  0
M  END
> <Potency>
11.7582471215303

> <pIC50>
4.929657416541123

> <Outcome>
Inactive

> <is_active>
0

$$$$

  Mrv1921 08232120312D          

 62 67  0  0  0  0            999 V2000
    3.5588    2.0219    0.0000 C   0  0  0  0  0  0  0  0  0  0  0  0
    3.8137    2.8065    0.0000 N   0  0  0  0  0  0  0  0  0  0  0  0
    3.3288    3.4739    0.0000 C   0  0  0  0  0  0  0  0  0  0  0  0
    2.5038    3.4739    0.0000 H   0  0  0  0  0  0  0  0  0  0  0  0
    3.8137    4.1414    0.0000 C   0  0  0  0  0  0  0  0  0  0  0  0
    3.5588    4.9260    0.0000 C   0  0  0  0  0  0  0  0  0  0  0  0
    2.7518    5.0975    0.0000 N   0  0  0  0  0  0  0  0  0  0  0  0
    2.4969    5.8821    0.0000 C   0  0  0  0  0  0  0  0  0  0  0  0
    1.6899    6.0537    0.0000 C   0  0  0  0  0  0  0  0  0  0  0  0
    1.9989    6.8186    0.0000 C   0  0  0  0  0  0  0  0  0  0  0  0
    1.4910    7.4687    0.0000 O   0  0  0  0  0  0  0  0  0  0  0  0
    2.8159    6.9334    0.0000 N   0  0  0  0  0  0  0  0  0  0  0  0
    3.1250    7.6983    0.0000 C   0  0  0  0  0  0  0  0  0  0  0  0
    2.6171    8.3484    0.0000 C   0  0  0  0  0  0  0  0  0  0  0  0
    1.8001    8.2336    0.0000 H   0  0  0  0  0  0  0  0  0  0  0  0
    2.9261    9.1134    0.0000 N   0  0  0  0  0  0  0  0  0  0  0  0
    3.7431    9.2282    0.0000 C   0  0  0  0  0  0  0  0  0  0  0  0
    4.0521    9.9931    0.0000 H   0  0  0  0  0  0  0  0  0  0  0  0
    4.2510    8.5781    0.0000 C   0  0  0  0  0  0  0  0  0  0  0  0
    5.0680    8.6929    0.0000 C   0  0  0  0  0  0  0  0  0  0  0  0
    5.5759    8.0428    0.0000 C   0  0  0  0  0  0  0  0  0  0  0  0
    5.2668    7.2779    0.0000 C   0  0  0  0  0  0  0  0  0  0  0  0
    4.4499    7.1630    0.0000 C   0  0  0  0  0  0  0  0  0  0  0  0
    4.5899    6.3500    0.0000 H   0  0  0  0  0  0  0  0  0  0  0  0
    3.9419    7.8132    0.0000 C   0  0  0  0  0  0  0  0  0  0  0  0
    5.7748    6.6278    0.0000 H   0  0  0  0  0  0  0  0  0  0  0  0
    6.3929    8.1576    0.0000 H   0  0  0  0  0  0  0  0  0  0  0  0
    5.3770    9.4578    0.0000 H   0  0  0  0  0  0  0  0  0  0  0  0
    3.6384    6.9974    0.0000 H   0  0  0  0  0  0  0  0  0  0  0  0
    1.6611    5.2292    0.0000 C   0  0  0  0  0  0  0  0  0  0  0  0
    2.4503    5.4695    0.0000 H   0  0  0  0  0  0  0  0  0  0  0  0
    0.9615    5.6664    0.0000 H   0  0  0  0  0  0  0  0  0  0  0  0
    0.9327    4.8419    0.0000 C   0  0  0  0  0  0  0  0  0  0  0  0
    0.5369    4.1180    0.0000 H   0  0  0  0  0  0  0  0  0  0  0  0
    1.2770    4.0921    0.0000 H   0  0  0  0  0  0  0  0  0  0  0  0
    0.2330    5.2790    0.0000 O   0  0  0  0  0  0  0  0  0  0  0  0
    0.2618    6.1035    0.0000 C   0  0  0  0  0  0  0  0  0  0  0  0
   -0.4378    6.5407    0.0000 C   0  0  0  0  0  0  0  0  0  0  0  0
   -0.4090    7.3652    0.0000 C   0  0  0  0  0  0  0  0  0  0  0  0
    0.3194    7.7525    0.0000 C   0  0  0  0  0  0  0  0  0  0  0  0
    0.3482    8.5770    0.0000 Cl  0  0  0  0  0  0  0  0  0  0  0  0
    1.0191    7.3153    0.0000 C   0  0  0  0  0  0  0  0  0  0  0  0
    1.1196    8.1342    0.0000 H   0  0  0  0  0  0  0  0  0  0  0  0
    0.9903    6.4909    0.0000 C   0  0  0  0  0  0  0  0  0  0  0  0
   -1.1087    7.8024    0.0000 H   0  0  0  0  0  0  0  0  0  0  0  0
   -1.1662    6.1534    0.0000 H   0  0  0  0  0  0  0  0  0  0  0  0
    3.2653    6.1823    0.0000 H   0  0  0  0  0  0  0  0  0  0  0  0
    2.7150    6.6778    0.0000 H   0  0  0  0  0  0  0  0  0  0  0  0
    2.1998    4.4844    0.0000 H   0  0  0  0  0  0  0  0  0  0  0  0
    4.3273    5.2261    0.0000 H   0  0  0  0  0  0  0  0  0  0  0  0
    3.7769    5.7216    0.0000 H   0  0  0  0  0  0  0  0  0  0  0  0
    4.5983    3.8864    0.0000 N   0  0  0  0  0  0  0  0  0  0  0  0
    5.3830    4.1414    0.0000 N   0  0  0  0  0  0  0  0  0  0  0  0
    5.8679    3.4739    0.0000 C   0  0  0  0  0  0  0  0  0  0  0  0
    5.3830    2.8065    0.0000 C   0  0  0  0  0  0  0  0  0  0  0  0
    5.6379    2.0219    0.0000 C   0  0  0  0  0  0  0  0  0  0  0  0
    5.8928    1.2372    0.0000 N   0  0  0  0  0  0  0  0  0  0  0  0
    4.5983    3.0614    0.0000 C   0  0  0  0  0  0  0  0  0  0  0  0
    6.6929    3.4739    0.0000 H   0  0  0  0  0  0  0  0  0  0  0  0
    2.7742    2.2768    0.0000 H   0  0  0  0  0  0  0  0  0  0  0  0
    3.3038    1.2372    0.0000 H   0  0  0  0  0  0  0  0  0  0  0  0
    4.3434    1.7669    0.0000 H   0  0  0  0  0  0  0  0  0  0  0  0
  1  2  1  0  0  0  0
  2  3  1  0  0  0  0
  3  4  1  0  0  0  0
  3  5  2  0  0  0  0
  5  6  1  0  0  0  0
  6  7  1  0  0  0  0
  7  8  1  0  0  0  0
  8  9  1  0  0  0  0
  9 10  1  0  0  0  0
 10 11  2  0  0  0  0
 10 12  1  0  0  0  0
 12 13  1  0  0  0  0
 13 14  2  0  0  0  0
 14 15  1  0  0  0  0
 14 16  1  0  0  0  0
 16 17  2  0  0  0  0
 17 18  1  0  0  0  0
 17 19  1  0  0  0  0
 19 20  2  0  0  0  0
 20 21  1  0  0  0  0
 21 22  2  0  0  0  0
 22 23  1  0  0  0  0
 23 24  1  0  0  0  0
 23 25  2  0  0  0  0
 13 25  1  0  0  0  0
 19 25  1  0  0  0  0
 22 26  1  0  0  0  0
 21 27  1  0  0  0  0
 20 28  1  0  0  0  0
 12 29  1  0  0  0  0
  9 30  1  0  0  0  0
 30 31  1  0  0  0  0
 30 32  1  0  0  0  0
 30 33  1  0  0  0  0
 33 34  1  0  0  0  0
 33 35  1  0  0  0  0
 33 36  1  0  0  0  0
 36 37  1  0  0  0  0
 37 38  2  0  0  0  0
 38 39  1  0  0  0  0
 39 40  2  0  0  0  0
 40 41  1  0  0  0  0
 40 42  1  0  0  0  0
 42 43  1  0  0  0  0
 42 44  2  0  0  0  0
  9 44  1  0  0  0  0
 37 44  1  0  0  0  0
 39 45  1  0  0  0  0
 38 46  1  0  0  0  0
  8 47  1  0  0  0  0
  8 48  1  0  0  0  0
  7 49  1  0  0  0  0
  6 50  1  0  0  0  0
  6 51  1  0  0  0  0
  5 52  1  0  0  0  0
 52 53  1  0  0  0  0
 53 54  2  0  0  0  0
 54 55  1  0  0  0  0
 55 56  1  0  0  0  0
 56 57  3  0  0  0  0
 55 58  2  0  0  0  0
  2 58  1  0  0  0  0
 52 58  1  0  0  0  0
 54 59  1  0  0  0  0
  1 60  1  0  0  0  0
  1 61  1  0  0  0  0
  1 62  1  0  0  0  0
M  END
> <Potency>
12.0942129343058

> <pIC50>
4.917422389345098

> <Outcome>
Inactive

> <is_active>
0

$$$$

  Mrv1921 08232120312D          

 48 50  0  0  0  0            999 V2000
   -0.7145    1.2375    0.0000 C   0  0  0  0  0  0  0  0  0  0  0  0
   -0.7145    0.4125    0.0000 N   0  0  0  0  0  0  0  0  0  0  0  0
   -1.4289    0.0000    0.0000 C   0  0  0  0  0  0  0  0  0  0  0  0
   -1.8414    0.7145    0.0000 H   0  0  0  0  0  0  0  0  0  0  0  0
   -2.1434   -0.4125    0.0000 H   0  0  0  0  0  0  0  0  0  0  0  0
   -1.0164   -0.7145    0.0000 H   0  0  0  0  0  0  0  0  0  0  0  0
    0.0000    0.0000    0.0000 S   0  0  0  0  0  0  0  0  0  0  0  0
   -0.4125   -0.7145    0.0000 O   0  0  0  0  0  0  0  0  0  0  0  0
    0.4125    0.7145    0.0000 O   0  0  0  0  0  0  0  0  0  0  0  0
    0.7145   -0.4125    0.0000 N   0  0  0  0  0  0  0  0  0  0  0  0
    1.4289    0.0000    0.0000 C   0  0  0  0  0  0  0  0  0  0  0  0
    1.7992    0.7372    0.0000 H   0  0  0  0  0  0  0  0  0  0  0  0
    1.0587    0.7372    0.0000 H   0  0  0  0  0  0  0  0  0  0  0  0
    2.1434   -0.4125    0.0000 C   0  0  0  0  0  0  0  0  0  0  0  0
    2.8579    0.0000    0.0000 C   0  0  0  0  0  0  0  0  0  0  0  0
    3.5724   -0.4125    0.0000 C   0  0  0  0  0  0  0  0  0  0  0  0
    3.5724   -1.2375    0.0000 C   0  0  0  0  0  0  0  0  0  0  0  0
    4.2868   -1.6500    0.0000 Cl  0  0  0  0  0  0  0  0  0  0  0  0
    2.8579   -1.6500    0.0000 C   0  0  0  0  0  0  0  0  0  0  0  0
    2.8579   -2.4750    0.0000 H   0  0  0  0  0  0  0  0  0  0  0  0
    2.1434   -1.2375    0.0000 C   0  0  0  0  0  0  0  0  0  0  0  0
    1.4289   -1.6500    0.0000 C   0  0  0  0  0  0  0  0  0  0  0  0
    1.4289   -2.4750    0.0000 C   0  0  0  0  0  0  0  0  0  0  0  0
    0.7145   -2.8875    0.0000 O   0  0  0  0  0  0  0  0  0  0  0  0
    2.1434   -2.8875    0.0000 N   0  0  0  0  0  0  0  0  0  0  0  0
    2.1434   -3.7125    0.0000 C   0  0  0  0  0  0  0  0  0  0  0  0
    1.4289   -4.1250    0.0000 C   0  0  0  0  0  0  0  0  0  0  0  0
    0.7145   -3.7125    0.0000 H   0  0  0  0  0  0  0  0  0  0  0  0
    1.4289   -4.9500    0.0000 N   0  0  0  0  0  0  0  0  0  0  0  0
    2.1434   -5.3625    0.0000 C   0  0  0  0  0  0  0  0  0  0  0  0
    2.1434   -6.1875    0.0000 H   0  0  0  0  0  0  0  0  0  0  0  0
    2.8579   -4.9500    0.0000 C   0  0  0  0  0  0  0  0  0  0  0  0
    3.5724   -5.3625    0.0000 H   0  0  0  0  0  0  0  0  0  0  0  0
    2.8579   -4.1250    0.0000 C   0  0  0  0  0  0  0  0  0  0  0  0
    3.5724   -3.7125    0.0000 C   0  0  0  0  0  0  0  0  0  0  0  0
    4.2868   -3.3000    0.0000 F   0  0  0  0  0  0  0  0  0  0  0  0
    3.9849   -4.4270    0.0000 F   0  0  0  0  0  0  0  0  0  0  0  0
    3.1599   -2.9980    0.0000 F   0  0  0  0  0  0  0  0  0  0  0  0
    2.1434   -2.0625    0.0000 H   0  0  0  0  0  0  0  0  0  0  0  0
    0.7145   -2.0625    0.0000 H   0  0  0  0  0  0  0  0  0  0  0  0
    0.7145   -1.2375    0.0000 C   0  0  0  0  0  0  0  0  0  0  0  0
   -0.0608   -0.9553    0.0000 H   0  0  0  0  0  0  0  0  0  0  0  0
   -0.0608   -1.5197    0.0000 H   0  0  0  0  0  0  0  0  0  0  0  0
    4.2868   -0.0000    0.0000 H   0  0  0  0  0  0  0  0  0  0  0  0
    2.8579    0.8250    0.0000 H   0  0  0  0  0  0  0  0  0  0  0  0
    0.1105    1.2375    0.0000 H   0  0  0  0  0  0  0  0  0  0  0  0
   -0.7145    2.0625    0.0000 H   0  0  0  0  0  0  0  0  0  0  0  0
   -1.5395    1.2375    0.0000 H   0  0  0  0  0  0  0  0  0  0  0  0
  1  2  1  0  0  0  0
  2  3  1  0  0  0  0
  3  4  1  0  0  0  0
  3  5  1  0  0  0  0
  3  6  1  0  0  0  0
  2  7  1  0  0  0  0
  7  8  2  0  0  0  0
  7  9  2  0  0  0  0
  7 10  1  0  0  0  0
 10 11  1  0  0  0  0
 11 12  1  0  0  0  0
 11 13  1  0  0  0  0
 11 14  1  0  0  0  0
 14 15  2  0  0  0  0
 15 16  1  0  0  0  0
 16 17  2  0  0  0  0
 17 18  1  0  0  0  0
 17 19  1  0  0  0  0
 19 20  1  0  0  0  0
 19 21  2  0  0  0  0
 14 21  1  0  0  0  0
 21 22  1  0  0  0  0
 22 23  1  0  0  0  0
 23 24  2  0  0  0  0
 23 25  1  0  0  0  0
 25 26  1  0  0  0  0
 26 27  2  0  0  0  0
 27 28  1  0  0  0  0
 27 29  1  0  0  0  0
 29 30  2  0  0  0  0
 30 31  1  0  0  0  0
 30 32  1  0  0  0  0
 32 33  1  0  0  0  0
 32 34  2  0  0  0  0
 26 34  1  0  0  0  0
 34 35  1  0  0  0  0
 35 36  1  0  0  0  0
 35 37  1  0  0  0  0
 35 38  1  0  0  0  0
 25 39  1  0  0  0  0
 22 40  1  0  0  0  0
 22 41  1  0  0  0  0
 10 41  1  0  0  0  0
 41 42  1  0  0  0  0
 41 43  1  0  0  0  0
 16 44  1  0  0  0  0
 15 45  1  0  0  0  0
  1 46  1  0  0  0  0
  1 47  1  0  0  0  0
  1 48  1  0  0  0  0
M  END
> <Potency>
28.8275830417378

> <pIC50>
4.540191768143815

> <Outcome>
Inactive

> <is_active>
0

$$$$

  Mrv1921 08232120312D          

 41 43  0  0  0  0            999 V2000
    2.1434   -6.1875    0.0000 C   0  0  0  0  0  0  0  0  0  0  0  0
    2.1434   -5.3625    0.0000 N   0  0  0  0  0  0  0  0  0  0  0  0
    1.4289   -4.9500    0.0000 C   0  0  0  0  0  0  0  0  0  0  0  0
    0.7145   -5.3625    0.0000 C   0  0  0  0  0  0  0  0  0  0  0  0
    0.7145   -6.1875    0.0000 H   0  0  0  0  0  0  0  0  0  0  0  0
    0.0000   -4.9500    0.0000 N   0  0  0  0  0  0  0  0  0  0  0  0
    0.0000   -4.1250    0.0000 C   0  0  0  0  0  0  0  0  0  0  0  0
   -0.7145   -3.7125    0.0000 H   0  0  0  0  0  0  0  0  0  0  0  0
    0.7145   -3.7125    0.0000 C   0  0  0  0  0  0  0  0  0  0  0  0
    0.7145   -2.8875    0.0000 N   0  0  0  0  0  0  0  0  0  0  0  0
    1.4289   -2.4750    0.0000 C   0  0  0  0  0  0  0  0  0  0  0  0
    2.1434   -2.8875    0.0000 O   0  0  0  0  0  0  0  0  0  0  0  0
    1.4289   -1.6500    0.0000 C   0  0  0  0  0  0  0  0  0  0  0  0
    0.7145   -1.2375    0.0000 C   0  0  0  0  0  0  0  0  0  0  0  0
   -0.1091   -1.2855    0.0000 H   0  0  0  0  0  0  0  0  0  0  0  0
    0.2611   -1.9268    0.0000 H   0  0  0  0  0  0  0  0  0  0  0  0
    0.7145   -0.4125    0.0000 C   0  0  0  0  0  0  0  0  0  0  0  0
    0.2611    0.2768    0.0000 H   0  0  0  0  0  0  0  0  0  0  0  0
   -0.1091   -0.3645    0.0000 H   0  0  0  0  0  0  0  0  0  0  0  0
    1.4289    0.0000    0.0000 O   0  0  0  0  0  0  0  0  0  0  0  0
    2.1434   -0.4125    0.0000 C   0  0  0  0  0  0  0  0  0  0  0  0
    2.8579    0.0000    0.0000 C   0  0  0  0  0  0  0  0  0  0  0  0
    3.5724   -0.4125    0.0000 C   0  0  0  0  0  0  0  0  0  0  0  0
    3.5724   -1.2375    0.0000 C   0  0  0  0  0  0  0  0  0  0  0  0
    4.2868   -1.6500    0.0000 Cl  0  0  0  0  0  0  0  0  0  0  0  0
    2.8579   -1.6500    0.0000 C   0  0  0  0  0  0  0  0  0  0  0  0
    3.2704   -2.3645    0.0000 H   0  0  0  0  0  0  0  0  0  0  0  0
    2.1434   -1.2375    0.0000 C   0  0  0  0  0  0  0  0  0  0  0  0
    4.2868   -0.0000    0.0000 H   0  0  0  0  0  0  0  0  0  0  0  0
    2.8579    0.8250    0.0000 H   0  0  0  0  0  0  0  0  0  0  0  0
    2.1434   -2.0625    0.0000 H   0  0  0  0  0  0  0  0  0  0  0  0
    0.0000   -2.4750    0.0000 H   0  0  0  0  0  0  0  0  0  0  0  0
    1.4289   -4.1250    0.0000 C   0  0  0  0  0  0  0  0  0  0  0  0
    2.1434   -3.7125    0.0000 C   0  0  0  0  0  0  0  0  0  0  0  0
    2.1434   -4.5375    0.0000 H   0  0  0  0  0  0  0  0  0  0  0  0
    2.8579   -4.1250    0.0000 H   0  0  0  0  0  0  0  0  0  0  0  0
    2.8579   -3.3000    0.0000 H   0  0  0  0  0  0  0  0  0  0  0  0
    2.8579   -4.9500    0.0000 H   0  0  0  0  0  0  0  0  0  0  0  0
    1.3184   -6.1875    0.0000 H   0  0  0  0  0  0  0  0  0  0  0  0
    2.1434   -7.0125    0.0000 H   0  0  0  0  0  0  0  0  0  0  0  0
    2.9684   -6.1875    0.0000 H   0  0  0  0  0  0  0  0  0  0  0  0
  1  2  1  0  0  0  0
  2  3  1  0  0  0  0
  3  4  2  0  0  0  0
  4  5  1  0  0  0  0
  4  6  1  0  0  0  0
  6  7  2  0  0  0  0
  7  8  1  0  0  0  0
  7  9  1  0  0  0  0
  9 10  1  0  0  0  0
 10 11  1  0  0  0  0
 11 12  2  0  0  0  0
 11 13  1  0  0  0  0
 13 14  1  0  0  0  0
 14 15  1  0  0  0  0
 14 16  1  0  0  0  0
 14 17  1  0  0  0  0
 17 18  1  0  0  0  0
 17 19  1  0  0  0  0
 17 20  1  0  0  0  0
 20 21  1  0  0  0  0
 21 22  2  0  0  0  0
 22 23  1  0  0  0  0
 23 24  2  0  0  0  0
 24 25  1  0  0  0  0
 24 26  1  0  0  0  0
 26 27  1  0  0  0  0
 26 28  2  0  0  0  0
 13 28  1  0  0  0  0
 21 28  1  0  0  0  0
 23 29  1  0  0  0  0
 22 30  1  0  0  0  0
 13 31  1  0  0  0  0
 10 32  1  0  0  0  0
  9 33  2  0  0  0  0
  3 33  1  0  0  0  0
 33 34  1  0  0  0  0
 34 35  1  0  0  0  0
 34 36  1  0  0  0  0
 34 37  1  0  0  0  0
  2 38  1  0  0  0  0
  1 39  1  0  0  0  0
  1 40  1  0  0  0  0
  1 41  1  0  0  0  0
M  END
> <Potency>
32.3310877455653

> <pIC50>
4.490379683759929

> <Outcome>
Inactive

> <is_active>
0

$$$$

  Mrv1921 08232120312D          

 64 69  0  0  0  0            999 V2000
    2.6689   -2.9623    0.0000 O   0  0  0  0  0  0  0  0  0  0  0  0
    1.8444   -2.9335    0.0000 C   0  0  0  0  0  0  0  0  0  0  0  0
    1.3365   -3.5836    0.0000 C   0  0  0  0  0  0  0  0  0  0  0  0
    1.4798   -4.3960    0.0000 C   0  0  0  0  0  0  0  0  0  0  0  0
    0.8478   -4.9263    0.0000 C   0  0  0  0  0  0  0  0  0  0  0  0
    0.0725   -4.6442    0.0000 C   0  0  0  0  0  0  0  0  0  0  0  0
   -0.0707   -3.8317    0.0000 C   0  0  0  0  0  0  0  0  0  0  0  0
   -0.8460   -3.5495    0.0000 H   0  0  0  0  0  0  0  0  0  0  0  0
    0.5613   -3.3014    0.0000 C   0  0  0  0  0  0  0  0  0  0  0  0
    0.5900   -2.4769    0.0000 C   0  0  0  0  0  0  0  0  0  0  0  0
   -0.0601   -1.9690    0.0000 O   0  0  0  0  0  0  0  0  0  0  0  0
    1.3831   -2.2495    0.0000 N   0  0  0  0  0  0  0  0  0  0  0  0
    1.6653   -1.4743    0.0000 C   0  0  0  0  0  0  0  0  0  0  0  0
    2.4777   -1.3310    0.0000 C   0  0  0  0  0  0  0  0  0  0  0  0
    2.7599   -0.5558    0.0000 N   0  0  0  0  0  0  0  0  0  0  0  0
    3.5724   -0.4125    0.0000 C   0  0  0  0  0  0  0  0  0  0  0  0
    4.1027   -1.0445    0.0000 C   0  0  0  0  0  0  0  0  0  0  0  0
    4.6330   -0.4125    0.0000 C   0  0  0  0  0  0  0  0  0  0  0  0
    5.4454   -0.5558    0.0000 O   0  0  0  0  0  0  0  0  0  0  0  0
    4.3508    0.3627    0.0000 N   0  0  0  0  0  0  0  0  0  0  0  0
    3.5383    0.5060    0.0000 C   0  0  0  0  0  0  0  0  0  0  0  0
    3.0080   -0.1260    0.0000 C   0  0  0  0  0  0  0  0  0  0  0  0
    2.7259    0.6493    0.0000 H   0  0  0  0  0  0  0  0  0  0  0  0
    2.1956    0.0173    0.0000 N   0  0  0  0  0  0  0  0  0  0  0  0
    1.9134    0.7925    0.0000 C   0  0  0  0  0  0  0  0  0  0  0  0
    1.1009    0.9358    0.0000 H   0  0  0  0  0  0  0  0  0  0  0  0
    2.4437    1.4245    0.0000 C   0  0  0  0  0  0  0  0  0  0  0  0
    2.1615    2.1998    0.0000 C   0  0  0  0  0  0  0  0  0  0  0  0
    2.6918    2.8317    0.0000 C   0  0  0  0  0  0  0  0  0  0  0  0
    3.5043    2.6885    0.0000 C   0  0  0  0  0  0  0  0  0  0  0  0
    3.7865    1.9132    0.0000 C   0  0  0  0  0  0  0  0  0  0  0  0
    4.5989    1.7700    0.0000 H   0  0  0  0  0  0  0  0  0  0  0  0
    3.2562    1.2813    0.0000 C   0  0  0  0  0  0  0  0  0  0  0  0
    4.0346    3.3205    0.0000 H   0  0  0  0  0  0  0  0  0  0  0  0
    2.4097    3.6070    0.0000 H   0  0  0  0  0  0  0  0  0  0  0  0
    1.3491    2.3430    0.0000 H   0  0  0  0  0  0  0  0  0  0  0  0
    4.8811    0.9947    0.0000 H   0  0  0  0  0  0  0  0  0  0  0  0
    3.3882   -1.4570    0.0000 C   0  0  0  0  0  0  0  0  0  0  0  0
    4.1027   -1.8695    0.0000 H   0  0  0  0  0  0  0  0  0  0  0  0
    3.6704   -0.6817    0.0000 H   0  0  0  0  0  0  0  0  0  0  0  0
    3.3882   -2.2820    0.0000 C   0  0  0  0  0  0  0  0  0  0  0  0
    2.7089   -2.7502    0.0000 H   0  0  0  0  0  0  0  0  0  0  0  0
    3.4211   -3.1063    0.0000 H   0  0  0  0  0  0  0  0  0  0  0  0
    4.1027   -2.6945    0.0000 O   0  0  0  0  0  0  0  0  0  0  0  0
    4.8171   -2.2820    0.0000 C   0  0  0  0  0  0  0  0  0  0  0  0
    5.5316   -2.6945    0.0000 C   0  0  0  0  0  0  0  0  0  0  0  0
    6.2461   -2.2820    0.0000 C   0  0  0  0  0  0  0  0  0  0  0  0
    6.2461   -1.4570    0.0000 C   0  0  0  0  0  0  0  0  0  0  0  0
    6.9605   -1.0445    0.0000 Cl  0  0  0  0  0  0  0  0  0  0  0  0
    5.5316   -1.0445    0.0000 C   0  0  0  0  0  0  0  0  0  0  0  0
    6.2074   -0.5713    0.0000 H   0  0  0  0  0  0  0  0  0  0  0  0
    4.8171   -1.4570    0.0000 C   0  0  0  0  0  0  0  0  0  0  0  0
    6.9605   -2.6945    0.0000 H   0  0  0  0  0  0  0  0  0  0  0  0
    5.5316   -3.5195    0.0000 H   0  0  0  0  0  0  0  0  0  0  0  0
    4.3422   -0.1160    0.0000 H   0  0  0  0  0  0  0  0  0  0  0  0
    3.2902   -1.1877    0.0000 H   0  0  0  0  0  0  0  0  0  0  0  0
    1.9538   -0.7312    0.0000 H   0  0  0  0  0  0  0  0  0  0  0  0
    2.1166   -2.0728    0.0000 H   0  0  0  0  0  0  0  0  0  0  0  0
    2.8661   -2.0589    0.0000 H   0  0  0  0  0  0  0  0  0  0  0  0
    1.4750   -0.6715    0.0000 H   0  0  0  0  0  0  0  0  0  0  0  0
    0.9077   -1.1475    0.0000 H   0  0  0  0  0  0  0  0  0  0  0  0
   -0.5595   -5.1745    0.0000 H   0  0  0  0  0  0  0  0  0  0  0  0
    0.9910   -5.7388    0.0000 H   0  0  0  0  0  0  0  0  0  0  0  0
    2.2550   -4.6782    0.0000 H   0  0  0  0  0  0  0  0  0  0  0  0
  1  2  2  0  0  0  0
  2  3  1  0  0  0  0
  3  4  2  0  0  0  0
  4  5  1  0  0  0  0
  5  6  2  0  0  0  0
  6  7  1  0  0  0  0
  7  8  1  0  0  0  0
  7  9  2  0  0  0  0
  3  9  1  0  0  0  0
  9 10  1  0  0  0  0
 10 11  2  0  0  0  0
 10 12  1  0  0  0  0
  2 12  1  0  0  0  0
 12 13  1  0  0  0  0
 13 14  1  0  0  0  0
 14 15  1  0  0  0  0
 15 16  1  0  0  0  0
 16 17  1  0  0  0  0
 17 18  1  0  0  0  0
 18 19  2  0  0  0  0
 18 20  1  0  0  0  0
 20 21  1  0  0  0  0
 21 22  2  0  0  0  0
 22 23  1  0  0  0  0
 22 24  1  0  0  0  0
 24 25  2  0  0  0  0
 25 26  1  0  0  0  0
 25 27  1  0  0  0  0
 27 28  2  0  0  0  0
 28 29  1  0  0  0  0
 29 30  2  0  0  0  0
 30 31  1  0  0  0  0
 31 32  1  0  0  0  0
 31 33  2  0  0  0  0
 21 33  1  0  0  0  0
 27 33  1  0  0  0  0
 30 34  1  0  0  0  0
 29 35  1  0  0  0  0
 28 36  1  0  0  0  0
 20 37  1  0  0  0  0
 17 38  1  0  0  0  0
 38 39  1  0  0  0  0
 38 40  1  0  0  0  0
 38 41  1  0  0  0  0
 41 42  1  0  0  0  0
 41 43  1  0  0  0  0
 41 44  1  0  0  0  0
 44 45  1  0  0  0  0
 45 46  2  0  0  0  0
 46 47  1  0  0  0  0
 47 48  2  0  0  0  0
 48 49  1  0  0  0  0
 48 50  1  0  0  0  0
 50 51  1  0  0  0  0
 50 52  2  0  0  0  0
 17 52  1  0  0  0  0
 45 52  1  0  0  0  0
 47 53  1  0  0  0  0
 46 54  1  0  0  0  0
 16 55  1  0  0  0  0
 16 56  1  0  0  0  0
 15 57  1  0  0  0  0
 14 58  1  0  0  0  0
 14 59  1  0  0  0  0
 13 60  1  0  0  0  0
 13 61  1  0  0  0  0
  6 62  1  0  0  0  0
  5 63  1  0  0  0  0
  4 64  1  0  0  0  0
M  END
> <Potency>
14.2891089719782

> <pIC50>
4.844994851728131

> <Outcome>
Inactive

> <is_active>
0

$$$$

  Mrv1921 08232120312D          

 73 77  0  0  0  0            999 V2000
    0.6047    0.2103    0.0000 C   0  0  0  0  0  0  0  0  0  0  0  0
    1.4171    0.0670    0.0000 O   0  0  0  0  0  0  0  0  0  0  0  0
    1.6993   -0.7082    0.0000 C   0  0  0  0  0  0  0  0  0  0  0  0
    2.5118   -0.8515    0.0000 C   0  0  0  0  0  0  0  0  0  0  0  0
    3.0421   -0.2195    0.0000 H   0  0  0  0  0  0  0  0  0  0  0  0
    2.7939   -1.6267    0.0000 C   0  0  0  0  0  0  0  0  0  0  0  0
    3.6064   -1.7700    0.0000 C   0  0  0  0  0  0  0  0  0  0  0  0
    4.1367   -1.1380    0.0000 N   0  0  0  0  0  0  0  0  0  0  0  0
    3.8545   -0.3627    0.0000 C   0  0  0  0  0  0  0  0  0  0  0  0
    4.3848    0.2692    0.0000 C   0  0  0  0  0  0  0  0  0  0  0  0
    4.9151   -0.3627    0.0000 C   0  0  0  0  0  0  0  0  0  0  0  0
    4.6330   -1.1380    0.0000 O   0  0  0  0  0  0  0  0  0  0  0  0
    5.7276   -0.2195    0.0000 N   0  0  0  0  0  0  0  0  0  0  0  0
    6.2579   -0.8515    0.0000 C   0  0  0  0  0  0  0  0  0  0  0  0
    7.0704   -0.7082    0.0000 C   0  0  0  0  0  0  0  0  0  0  0  0
    7.7121   -0.1898    0.0000 H   0  0  0  0  0  0  0  0  0  0  0  0
    7.6007   -1.3402    0.0000 N   0  0  0  0  0  0  0  0  0  0  0  0
    7.3185   -2.1154    0.0000 C   0  0  0  0  0  0  0  0  0  0  0  0
    7.8488   -2.7474    0.0000 H   0  0  0  0  0  0  0  0  0  0  0  0
    6.5060   -2.2587    0.0000 C   0  0  0  0  0  0  0  0  0  0  0  0
    6.2239   -3.0340    0.0000 C   0  0  0  0  0  0  0  0  0  0  0  0
    5.4114   -3.1772    0.0000 C   0  0  0  0  0  0  0  0  0  0  0  0
    4.8811   -2.5452    0.0000 C   0  0  0  0  0  0  0  0  0  0  0  0
    5.1633   -1.7700    0.0000 C   0  0  0  0  0  0  0  0  0  0  0  0
    5.4454   -0.9947    0.0000 H   0  0  0  0  0  0  0  0  0  0  0  0
    5.9757   -1.6267    0.0000 C   0  0  0  0  0  0  0  0  0  0  0  0
    4.4244   -3.2323    0.0000 H   0  0  0  0  0  0  0  0  0  0  0  0
    5.1292   -3.9525    0.0000 H   0  0  0  0  0  0  0  0  0  0  0  0
    6.7542   -3.6659    0.0000 H   0  0  0  0  0  0  0  0  0  0  0  0
    6.5245   -0.0060    0.0000 H   0  0  0  0  0  0  0  0  0  0  0  0
    3.6704    0.6817    0.0000 C   0  0  0  0  0  0  0  0  0  0  0  0
    2.8467    0.6338    0.0000 H   0  0  0  0  0  0  0  0  0  0  0  0
    3.2170   -0.0075    0.0000 H   0  0  0  0  0  0  0  0  0  0  0  0
    3.6704    1.5067    0.0000 C   0  0  0  0  0  0  0  0  0  0  0  0
    3.2170    2.1960    0.0000 H   0  0  0  0  0  0  0  0  0  0  0  0
    2.8467    1.5547    0.0000 H   0  0  0  0  0  0  0  0  0  0  0  0
    4.3848    1.9192    0.0000 O   0  0  0  0  0  0  0  0  0  0  0  0
    5.0993    1.5067    0.0000 C   0  0  0  0  0  0  0  0  0  0  0  0
    5.8138    1.9192    0.0000 C   0  0  0  0  0  0  0  0  0  0  0  0
    6.5282    1.5067    0.0000 C   0  0  0  0  0  0  0  0  0  0  0  0
    6.5282    0.6817    0.0000 C   0  0  0  0  0  0  0  0  0  0  0  0
    7.2427    0.2692    0.0000 Cl  0  0  0  0  0  0  0  0  0  0  0  0
    5.8138    0.2692    0.0000 C   0  0  0  0  0  0  0  0  0  0  0  0
    5.0661   -0.0794    0.0000 H   0  0  0  0  0  0  0  0  0  0  0  0
    5.0993    0.6817    0.0000 C   0  0  0  0  0  0  0  0  0  0  0  0
    7.2427    1.9192    0.0000 H   0  0  0  0  0  0  0  0  0  0  0  0
    5.8138    2.7442    0.0000 H   0  0  0  0  0  0  0  0  0  0  0  0
    3.3242   -0.9947    0.0000 H   0  0  0  0  0  0  0  0  0  0  0  0
    4.6670   -0.5060    0.0000 H   0  0  0  0  0  0  0  0  0  0  0  0
    4.4853   -1.8857    0.0000 H   0  0  0  0  0  0  0  0  0  0  0  0
    3.5106   -2.5894    0.0000 H   0  0  0  0  0  0  0  0  0  0  0  0
    4.2065   -2.3361    0.0000 H   0  0  0  0  0  0  0  0  0  0  0  0
    2.2636   -2.2587    0.0000 C   0  0  0  0  0  0  0  0  0  0  0  0
    2.5458   -3.0340    0.0000 H   0  0  0  0  0  0  0  0  0  0  0  0
    1.4512   -2.1154    0.0000 C   0  0  0  0  0  0  0  0  0  0  0  0
    0.9209   -2.7474    0.0000 O   0  0  0  0  0  0  0  0  0  0  0  0
    0.1084   -2.6042    0.0000 C   0  0  0  0  0  0  0  0  0  0  0  0
   -0.7041   -2.4609    0.0000 H   0  0  0  0  0  0  0  0  0  0  0  0
   -0.4219   -3.2362    0.0000 H   0  0  0  0  0  0  0  0  0  0  0  0
    0.3906   -3.3794    0.0000 H   0  0  0  0  0  0  0  0  0  0  0  0
    1.1690   -1.3402    0.0000 C   0  0  0  0  0  0  0  0  0  0  0  0
    0.3565   -1.1969    0.0000 O   0  0  0  0  0  0  0  0  0  0  0  0
   -0.1738   -1.8289    0.0000 C   0  0  0  0  0  0  0  0  0  0  0  0
   -0.9862   -1.6857    0.0000 C   0  0  0  0  0  0  0  0  0  0  0  0
   -1.5165   -2.3177    0.0000 N   0  0  0  0  0  0  0  0  0  0  0  0
   -2.3193   -2.1274    0.0000 H   0  0  0  0  0  0  0  0  0  0  0  0
   -2.0092   -2.9794    0.0000 H   0  0  0  0  0  0  0  0  0  0  0  0
   -1.2684   -0.9104    0.0000 O   0  0  0  0  0  0  0  0  0  0  0  0
    0.6387   -1.9722    0.0000 H   0  0  0  0  0  0  0  0  0  0  0  0
   -0.4559   -1.0537    0.0000 H   0  0  0  0  0  0  0  0  0  0  0  0
    0.7479    1.0228    0.0000 H   0  0  0  0  0  0  0  0  0  0  0  0
   -0.2078    0.3536    0.0000 H   0  0  0  0  0  0  0  0  0  0  0  0
    0.4614   -0.6022    0.0000 H   0  0  0  0  0  0  0  0  0  0  0  0
  1  2  1  0  0  0  0
  2  3  1  0  0  0  0
  3  4  2  0  0  0  0
  4  5  1  0  0  0  0
  4  6  1  0  0  0  0
  6  7  1  0  0  0  0
  7  8  1  0  0  0  0
  8  9  1  0  0  0  0
  9 10  1  0  0  0  0
 10 11  1  0  0  0  0
 11 12  2  0  0  0  0
 11 13  1  0  0  0  0
 13 14  1  0  0  0  0
 14 15  2  0  0  0  0
 15 16  1  0  0  0  0
 15 17  1  0  0  0  0
 17 18  2  0  0  0  0
 18 19  1  0  0  0  0
 18 20  1  0  0  0  0
 20 21  2  0  0  0  0
 21 22  1  0  0  0  0
 22 23  2  0  0  0  0
 23 24  1  0  0  0  0
 24 25  1  0  0  0  0
 24 26  2  0  0  0  0
 14 26  1  0  0  0  0
 20 26  1  0  0  0  0
 23 27  1  0  0  0  0
 22 28  1  0  0  0  0
 21 29  1  0  0  0  0
 13 30  1  0  0  0  0
 10 31  1  0  0  0  0
 31 32  1  0  0  0  0
 31 33  1  0  0  0  0
 31 34  1  0  0  0  0
 34 35  1  0  0  0  0
 34 36  1  0  0  0  0
 34 37  1  0  0  0  0
 37 38  1  0  0  0  0
 38 39  2  0  0  0  0
 39 40  1  0  0  0  0
 40 41  2  0  0  0  0
 41 42  1  0  0  0  0
 41 43  1  0  0  0  0
 43 44  1  0  0  0  0
 43 45  2  0  0  0  0
 10 45  1  0  0  0  0
 38 45  1  0  0  0  0
 40 46  1  0  0  0  0
 39 47  1  0  0  0  0
  9 48  1  0  0  0  0
  9 49  1  0  0  0  0
  8 50  1  0  0  0  0
  7 51  1  0  0  0  0
  7 52  1  0  0  0  0
  6 53  2  0  0  0  0
 53 54  1  0  0  0  0
 53 55  1  0  0  0  0
 55 56  1  0  0  0  0
 56 57  1  0  0  0  0
 57 58  1  0  0  0  0
 57 59  1  0  0  0  0
 57 60  1  0  0  0  0
 55 61  2  0  0  0  0
  3 61  1  0  0  0  0
 61 62  1  0  0  0  0
 62 63  1  0  0  0  0
 63 64  1  0  0  0  0
 64 65  1  0  0  0  0
 65 66  1  0  0  0  0
 65 67  1  0  0  0  0
 64 68  2  0  0  0  0
 63 69  1  0  0  0  0
 63 70  1  0  0  0  0
  1 71  1  0  0  0  0
  1 72  1  0  0  0  0
  1 73  1  0  0  0  0
M  END
> <Potency>
12.0979597416791

> <pIC50>
4.917287865025866

> <Outcome>
Inactive

> <is_active>
0

$$$$

  Mrv1921 08232120312D          

 68 73  0  0  0  0            999 V2000
    1.1808   -3.0572    0.0000 O   0  0  0  0  0  0  0  0  0  0  0  0
    0.8986   -2.2820    0.0000 C   0  0  0  0  0  0  0  0  0  0  0  0
    0.0862   -2.1387    0.0000 N   0  0  0  0  0  0  0  0  0  0  0  0
   -0.4441   -2.7707    0.0000 C   0  0  0  0  0  0  0  0  0  0  0  0
   -0.1620   -3.5460    0.0000 C   0  0  0  0  0  0  0  0  0  0  0  0
    0.6505   -3.6892    0.0000 H   0  0  0  0  0  0  0  0  0  0  0  0
   -0.6923   -4.1779    0.0000 N   0  0  0  0  0  0  0  0  0  0  0  0
   -1.5047   -4.0347    0.0000 C   0  0  0  0  0  0  0  0  0  0  0  0
   -2.0350   -4.6667    0.0000 H   0  0  0  0  0  0  0  0  0  0  0  0
   -1.7869   -3.2594    0.0000 C   0  0  0  0  0  0  0  0  0  0  0  0
   -2.5994   -3.1162    0.0000 C   0  0  0  0  0  0  0  0  0  0  0  0
   -2.8815   -2.3409    0.0000 C   0  0  0  0  0  0  0  0  0  0  0  0
   -2.3512   -1.7089    0.0000 C   0  0  0  0  0  0  0  0  0  0  0  0
   -1.5388   -1.8522    0.0000 C   0  0  0  0  0  0  0  0  0  0  0  0
   -1.0085   -1.2202    0.0000 H   0  0  0  0  0  0  0  0  0  0  0  0
   -1.2566   -2.6275    0.0000 C   0  0  0  0  0  0  0  0  0  0  0  0
   -2.6334   -0.9337    0.0000 H   0  0  0  0  0  0  0  0  0  0  0  0
   -3.6940   -2.1977    0.0000 H   0  0  0  0  0  0  0  0  0  0  0  0
   -3.1297   -3.7482    0.0000 H   0  0  0  0  0  0  0  0  0  0  0  0
   -0.1960   -1.3635    0.0000 H   0  0  0  0  0  0  0  0  0  0  0  0
    1.4289   -1.6500    0.0000 C   0  0  0  0  0  0  0  0  0  0  0  0
    1.9592   -2.2820    0.0000 C   0  0  0  0  0  0  0  0  0  0  0  0
    1.6771   -3.0572    0.0000 N   0  0  0  0  0  0  0  0  0  0  0  0
    2.2074   -3.6892    0.0000 C   0  0  0  0  0  0  0  0  0  0  0  0
    3.0198   -3.5460    0.0000 C   0  0  0  0  0  0  0  0  0  0  0  0
    3.3020   -2.7707    0.0000 C   0  0  0  0  0  0  0  0  0  0  0  0
    3.4063   -1.9523    0.0000 H   0  0  0  0  0  0  0  0  0  0  0  0
    4.1145   -2.6275    0.0000 N   0  0  0  0  0  0  0  0  0  0  0  0
    4.6448   -3.2594    0.0000 C   0  0  0  0  0  0  0  0  0  0  0  0
    5.4572   -3.1162    0.0000 N   0  0  0  0  0  0  0  0  0  0  0  0
    5.7394   -2.3409    0.0000 C   0  0  0  0  0  0  0  0  0  0  0  0
    5.5491   -1.5382    0.0000 H   0  0  0  0  0  0  0  0  0  0  0  0
    4.9819   -2.0142    0.0000 H   0  0  0  0  0  0  0  0  0  0  0  0
    6.5519   -2.1977    0.0000 C   0  0  0  0  0  0  0  0  0  0  0  0
    7.1520   -1.6315    0.0000 H   0  0  0  0  0  0  0  0  0  0  0  0
    6.4561   -1.3783    0.0000 H   0  0  0  0  0  0  0  0  0  0  0  0
    7.0822   -2.8297    0.0000 O   0  0  0  0  0  0  0  0  0  0  0  0
    6.8000   -3.6049    0.0000 C   0  0  0  0  0  0  0  0  0  0  0  0
    6.9903   -4.4077    0.0000 H   0  0  0  0  0  0  0  0  0  0  0  0
    7.5575   -3.9317    0.0000 H   0  0  0  0  0  0  0  0  0  0  0  0
    5.9875   -3.7482    0.0000 C   0  0  0  0  0  0  0  0  0  0  0  0
    5.3875   -4.3143    0.0000 H   0  0  0  0  0  0  0  0  0  0  0  0
    6.0833   -4.5676    0.0000 H   0  0  0  0  0  0  0  0  0  0  0  0
    4.3626   -4.0347    0.0000 N   0  0  0  0  0  0  0  0  0  0  0  0
    3.5501   -4.1779    0.0000 C   0  0  0  0  0  0  0  0  0  0  0  0
    3.2680   -4.9532    0.0000 H   0  0  0  0  0  0  0  0  0  0  0  0
    2.0425   -4.4976    0.0000 H   0  0  0  0  0  0  0  0  0  0  0  0
    2.6077   -4.4106    0.0000 H   0  0  0  0  0  0  0  0  0  0  0  0
    1.3284   -3.8049    0.0000 H   0  0  0  0  0  0  0  0  0  0  0  0
    2.7496   -2.5186    0.0000 H   0  0  0  0  0  0  0  0  0  0  0  0
    2.6210   -1.7893    0.0000 H   0  0  0  0  0  0  0  0  0  0  0  0
    0.7145   -1.2375    0.0000 C   0  0  0  0  0  0  0  0  0  0  0  0
    0.5562   -2.0472    0.0000 H   0  0  0  0  0  0  0  0  0  0  0  0
    1.4289   -0.8250    0.0000 H   0  0  0  0  0  0  0  0  0  0  0  0
    0.7145   -0.4125    0.0000 C   0  0  0  0  0  0  0  0  0  0  0  0
    0.2611    0.2768    0.0000 H   0  0  0  0  0  0  0  0  0  0  0  0
   -0.1091   -0.3645    0.0000 H   0  0  0  0  0  0  0  0  0  0  0  0
    1.4289    0.0000    0.0000 O   0  0  0  0  0  0  0  0  0  0  0  0
    2.1434   -0.4125    0.0000 C   0  0  0  0  0  0  0  0  0  0  0  0
    2.8579    0.0000    0.0000 C   0  0  0  0  0  0  0  0  0  0  0  0
    3.5724   -0.4125    0.0000 C   0  0  0  0  0  0  0  0  0  0  0  0
    3.5724   -1.2375    0.0000 C   0  0  0  0  0  0  0  0  0  0  0  0
    4.2868   -1.6500    0.0000 Cl  0  0  0  0  0  0  0  0  0  0  0  0
    2.8579   -1.6500    0.0000 C   0  0  0  0  0  0  0  0  0  0  0  0
    2.8579   -0.8250    0.0000 H   0  0  0  0  0  0  0  0  0  0  0  0
    2.1434   -1.2375    0.0000 C   0  0  0  0  0  0  0  0  0  0  0  0
    4.2868   -0.0000    0.0000 H   0  0  0  0  0  0  0  0  0  0  0  0
    2.8579    0.8250    0.0000 H   0  0  0  0  0  0  0  0  0  0  0  0
  1  2  2  0  0  0  0
  2  3  1  0  0  0  0
  3  4  1  0  0  0  0
  4  5  2  0  0  0  0
  5  6  1  0  0  0  0
  5  7  1  0  0  0  0
  7  8  2  0  0  0  0
  8  9  1  0  0  0  0
  8 10  1  0  0  0  0
 10 11  2  0  0  0  0
 11 12  1  0  0  0  0
 12 13  2  0  0  0  0
 13 14  1  0  0  0  0
 14 15  1  0  0  0  0
 14 16  2  0  0  0  0
  4 16  1  0  0  0  0
 10 16  1  0  0  0  0
 13 17  1  0  0  0  0
 12 18  1  0  0  0  0
 11 19  1  0  0  0  0
  3 20  1  0  0  0  0
  2 21  1  0  0  0  0
 21 22  1  0  0  0  0
 22 23  1  0  0  0  0
 23 24  1  0  0  0  0
 24 25  1  0  0  0  0
 25 26  2  0  0  0  0
 26 27  1  0  0  0  0
 26 28  1  0  0  0  0
 28 29  2  0  0  0  0
 29 30  1  0  0  0  0
 30 31  1  0  0  0  0
 31 32  1  0  0  0  0
 31 33  1  0  0  0  0
 31 34  1  0  0  0  0
 34 35  1  0  0  0  0
 34 36  1  0  0  0  0
 34 37  1  0  0  0  0
 37 38  1  0  0  0  0
 38 39  1  0  0  0  0
 38 40  1  0  0  0  0
 38 41  1  0  0  0  0
 30 41  1  0  0  0  0
 41 42  1  0  0  0  0
 41 43  1  0  0  0  0
 29 44  1  0  0  0  0
 44 45  2  0  0  0  0
 25 45  1  0  0  0  0
 45 46  1  0  0  0  0
 24 47  1  0  0  0  0
 24 48  1  0  0  0  0
 23 49  1  0  0  0  0
 22 50  1  0  0  0  0
 22 51  1  0  0  0  0
 21 52  1  0  0  0  0
 52 53  1  0  0  0  0
 52 54  1  0  0  0  0
 52 55  1  0  0  0  0
 55 56  1  0  0  0  0
 55 57  1  0  0  0  0
 55 58  1  0  0  0  0
 58 59  1  0  0  0  0
 59 60  2  0  0  0  0
 60 61  1  0  0  0  0
 61 62  2  0  0  0  0
 62 63  1  0  0  0  0
 62 64  1  0  0  0  0
 64 65  1  0  0  0  0
 64 66  2  0  0  0  0
 21 66  1  0  0  0  0
 59 66  1  0  0  0  0
 61 67  1  0  0  0  0
 60 68  1  0  0  0  0
M  END
> <Potency>
14.3306861035561

> <pIC50>
4.843733016591113

> <Outcome>
Inactive

> <is_active>
0

$$$$

  Mrv1921 08232120312D          

 40 44  0  0  0  0            999 V2000
    5.1598    0.2069    0.0000 O   0  0  0  0  0  0  0  0  0  0  0  0
    4.3752   -0.0481    0.0000 C   0  0  0  0  0  0  0  0  0  0  0  0
    4.1202   -0.8327    0.0000 O   0  0  0  0  0  0  0  0  0  0  0  0
    3.2952   -0.8327    0.0000 C   0  0  0  0  0  0  0  0  0  0  0  0
    3.6308   -1.5864    0.0000 C   0  0  0  0  0  0  0  0  0  0  0  0
    4.1060   -2.2608    0.0000 H   0  0  0  0  0  0  0  0  0  0  0  0
    4.4307   -1.7883    0.0000 H   0  0  0  0  0  0  0  0  0  0  0  0
    3.1459   -2.2538    0.0000 C   0  0  0  0  0  0  0  0  0  0  0  0
    2.8126   -3.0085    0.0000 H   0  0  0  0  0  0  0  0  0  0  0  0
    3.3927   -3.0410    0.0000 H   0  0  0  0  0  0  0  0  0  0  0  0
    2.3254   -2.1676    0.0000 O   0  0  0  0  0  0  0  0  0  0  0  0
    1.9898   -1.4139    0.0000 C   0  0  0  0  0  0  0  0  0  0  0  0
    1.1694   -1.3277    0.0000 C   0  0  0  0  0  0  0  0  0  0  0  0
    0.8338   -0.5740    0.0000 C   0  0  0  0  0  0  0  0  0  0  0  0
    1.3187    0.0935    0.0000 C   0  0  0  0  0  0  0  0  0  0  0  0
    0.9832    0.8471    0.0000 Cl  0  0  0  0  0  0  0  0  0  0  0  0
    2.1392    0.0072    0.0000 C   0  0  0  0  0  0  0  0  0  0  0  0
    1.6543   -0.6602    0.0000 H   0  0  0  0  0  0  0  0  0  0  0  0
    2.4748   -0.7465    0.0000 C   0  0  0  0  0  0  0  0  0  0  0  0
    0.0133   -0.4877    0.0000 H   0  0  0  0  0  0  0  0  0  0  0  0
    0.6844   -1.9951    0.0000 H   0  0  0  0  0  0  0  0  0  0  0  0
    3.0403   -0.0481    0.0000 C   0  0  0  0  0  0  0  0  0  0  0  0
    2.3729    0.4369    0.0000 O   0  0  0  0  0  0  0  0  0  0  0  0
    3.7077    0.4369    0.0000 N   0  0  0  0  0  0  0  0  0  0  0  0
    3.7077    1.2619    0.0000 C   0  0  0  0  0  0  0  0  0  0  0  0
    2.9933    1.6744    0.0000 C   0  0  0  0  0  0  0  0  0  0  0  0
    2.2788    1.2619    0.0000 H   0  0  0  0  0  0  0  0  0  0  0  0
    2.9933    2.4994    0.0000 N   0  0  0  0  0  0  0  0  0  0  0  0
    3.7077    2.9119    0.0000 C   0  0  0  0  0  0  0  0  0  0  0  0
    3.7077    3.7369    0.0000 H   0  0  0  0  0  0  0  0  0  0  0  0
    4.4222    2.4994    0.0000 C   0  0  0  0  0  0  0  0  0  0  0  0
    5.1367    2.9119    0.0000 C   0  0  0  0  0  0  0  0  0  0  0  0
    5.8511    2.4994    0.0000 C   0  0  0  0  0  0  0  0  0  0  0  0
    5.8511    1.6744    0.0000 C   0  0  0  0  0  0  0  0  0  0  0  0
    5.1367    1.2619    0.0000 C   0  0  0  0  0  0  0  0  0  0  0  0
    5.1367    0.4369    0.0000 H   0  0  0  0  0  0  0  0  0  0  0  0
    4.4222    1.6744    0.0000 C   0  0  0  0  0  0  0  0  0  0  0  0
    6.5656    1.2619    0.0000 H   0  0  0  0  0  0  0  0  0  0  0  0
    6.5656    2.9119    0.0000 H   0  0  0  0  0  0  0  0  0  0  0  0
    5.1367    3.7369    0.0000 H   0  0  0  0  0  0  0  0  0  0  0  0
  1  2  2  0  0  0  0
  2  3  1  0  0  0  0
  3  4  1  0  0  0  0
  4  5  1  0  0  0  0
  5  6  1  0  0  0  0
  5  7  1  0  0  0  0
  5  8  1  0  0  0  0
  8  9  1  0  0  0  0
  8 10  1  0  0  0  0
  8 11  1  0  0  0  0
 11 12  1  0  0  0  0
 12 13  2  0  0  0  0
 13 14  1  0  0  0  0
 14 15  2  0  0  0  0
 15 16  1  0  0  0  0
 15 17  1  0  0  0  0
 17 18  1  0  0  0  0
 17 19  2  0  0  0  0
  4 19  1  0  0  0  0
 12 19  1  0  0  0  0
 14 20  1  0  0  0  0
 13 21  1  0  0  0  0
  4 22  1  0  0  0  0
 22 23  2  0  0  0  0
 22 24  1  0  0  0  0
  2 24  1  0  0  0  0
 24 25  1  0  0  0  0
 25 26  2  0  0  0  0
 26 27  1  0  0  0  0
 26 28  1  0  0  0  0
 28 29  2  0  0  0  0
 29 30  1  0  0  0  0
 29 31  1  0  0  0  0
 31 32  2  0  0  0  0
 32 33  1  0  0  0  0
 33 34  2  0  0  0  0
 34 35  1  0  0  0  0
 35 36  1  0  0  0  0
 35 37  2  0  0  0  0
 25 37  1  0  0  0  0
 31 37  1  0  0  0  0
 34 38  1  0  0  0  0
 33 39  1  0  0  0  0
 32 40  1  0  0  0  0
M  END
> <Potency>
80.8699121413771

> <pIC50>
4.092213028714978

> <Outcome>
Inactive

> <is_active>
0

$$$$

  Mrv1921 08232120312D          

 40 44  0  0  0  0            999 V2000
    0.7145   -0.4125    0.0000 O   0  0  0  0  0  0  0  0  0  0  0  0
    1.4289   -0.0000    0.0000 C   0  0  0  0  0  0  0  0  0  0  0  0
    2.1434   -0.4125    0.0000 N   0  0  0  0  0  0  0  0  0  0  0  0
    2.1434   -1.2375    0.0000 C   0  0  0  0  0  0  0  0  0  0  0  0
    2.8579   -1.6500    0.0000 C   0  0  0  0  0  0  0  0  0  0  0  0
    3.5724   -1.2375    0.0000 H   0  0  0  0  0  0  0  0  0  0  0  0
    2.8579   -2.4750    0.0000 N   0  0  0  0  0  0  0  0  0  0  0  0
    2.1434   -2.8875    0.0000 C   0  0  0  0  0  0  0  0  0  0  0  0
    2.1434   -3.7125    0.0000 H   0  0  0  0  0  0  0  0  0  0  0  0
    1.4289   -2.4750    0.0000 C   0  0  0  0  0  0  0  0  0  0  0  0
    0.7145   -2.8875    0.0000 C   0  0  0  0  0  0  0  0  0  0  0  0
   -0.0000   -2.4750    0.0000 C   0  0  0  0  0  0  0  0  0  0  0  0
   -0.0000   -1.6500    0.0000 C   0  0  0  0  0  0  0  0  0  0  0  0
    0.7145   -1.2375    0.0000 C   0  0  0  0  0  0  0  0  0  0  0  0
    1.4289   -0.8250    0.0000 H   0  0  0  0  0  0  0  0  0  0  0  0
    1.4289   -1.6500    0.0000 C   0  0  0  0  0  0  0  0  0  0  0  0
   -0.7145   -1.2375    0.0000 H   0  0  0  0  0  0  0  0  0  0  0  0
   -0.7145   -2.8875    0.0000 H   0  0  0  0  0  0  0  0  0  0  0  0
    0.7145   -3.7125    0.0000 H   0  0  0  0  0  0  0  0  0  0  0  0
    2.8579   -0.0000    0.0000 H   0  0  0  0  0  0  0  0  0  0  0  0
    1.4289    0.8250    0.0000 C   0  0  0  0  0  0  0  0  0  0  0  0
    2.1434    1.2375    0.0000 C   0  0  0  0  0  0  0  0  0  0  0  0
    2.5968    0.5482    0.0000 H   0  0  0  0  0  0  0  0  0  0  0  0
    2.9670    1.1895    0.0000 H   0  0  0  0  0  0  0  0  0  0  0  0
    2.1434    2.0625    0.0000 C   0  0  0  0  0  0  0  0  0  0  0  0
    2.9670    2.1105    0.0000 H   0  0  0  0  0  0  0  0  0  0  0  0
    2.5968    2.7518    0.0000 H   0  0  0  0  0  0  0  0  0  0  0  0
    1.4289    2.4750    0.0000 C   0  0  0  0  0  0  0  0  0  0  0  0
    1.2227    1.6500    0.0000 O   0  0  0  0  0  0  0  0  0  0  0  0
    1.4289    3.3000    0.0000 H   0  0  0  0  0  0  0  0  0  0  0  0
    0.7145    2.0625    0.0000 C   0  0  0  0  0  0  0  0  0  0  0  0
   -0.0000    2.4750    0.0000 C   0  0  0  0  0  0  0  0  0  0  0  0
   -0.7145    2.0625    0.0000 C   0  0  0  0  0  0  0  0  0  0  0  0
   -0.7145    1.2375    0.0000 C   0  0  0  0  0  0  0  0  0  0  0  0
   -1.4289    0.8250    0.0000 Cl  0  0  0  0  0  0  0  0  0  0  0  0
   -0.0000    0.8250    0.0000 C   0  0  0  0  0  0  0  0  0  0  0  0
    0.0000   -0.0000    0.0000 H   0  0  0  0  0  0  0  0  0  0  0  0
    0.7145    1.2375    0.0000 C   0  0  0  0  0  0  0  0  0  0  0  0
   -1.4289    2.4750    0.0000 H   0  0  0  0  0  0  0  0  0  0  0  0
   -0.0000    3.3000    0.0000 H   0  0  0  0  0  0  0  0  0  0  0  0
  1  2  2  0  0  0  0
  2  3  1  0  0  0  0
  3  4  1  0  0  0  0
  4  5  2  0  0  0  0
  5  6  1  0  0  0  0
  5  7  1  0  0  0  0
  7  8  2  0  0  0  0
  8  9  1  0  0  0  0
  8 10  1  0  0  0  0
 10 11  2  0  0  0  0
 11 12  1  0  0  0  0
 12 13  2  0  0  0  0
 13 14  1  0  0  0  0
 14 15  1  0  0  0  0
 14 16  2  0  0  0  0
  4 16  1  0  0  0  0
 10 16  1  0  0  0  0
 13 17  1  0  0  0  0
 12 18  1  0  0  0  0
 11 19  1  0  0  0  0
  3 20  1  0  0  0  0
  2 21  1  0  0  0  0
 21 22  1  0  0  0  0
 22 23  1  0  0  0  0
 22 24  1  0  0  0  0
 22 25  1  0  0  0  0
 25 26  1  0  0  0  0
 25 27  1  0  0  0  0
 25 28  1  0  0  0  0
 28 29  1  0  0  0  0
 21 29  1  0  0  0  0
 28 30  1  0  0  0  0
 28 31  1  0  0  0  0
 31 32  2  0  0  0  0
 32 33  1  0  0  0  0
 33 34  2  0  0  0  0
 34 35  1  0  0  0  0
 34 36  1  0  0  0  0
 36 37  1  0  0  0  0
 36 38  2  0  0  0  0
 21 38  1  0  0  0  0
 31 38  1  0  0  0  0
 33 39  1  0  0  0  0
 32 40  1  0  0  0  0
M  END
> <Potency>
11.097363035501

> <pIC50>
4.95478020636506

> <Outcome>
Inactive

> <is_active>
0

$$$$

  Mrv1921 08232120312D          

 47 50  0  0  0  0            999 V2000
    3.2262   -2.0890    0.0000 C   0  0  0  0  0  0  0  0  0  0  0  0
    3.7565   -1.4570    0.0000 N   0  0  0  0  0  0  0  0  0  0  0  0
    4.5690   -1.6002    0.0000 C   0  0  0  0  0  0  0  0  0  0  0  0
    5.0993   -0.9683    0.0000 C   0  0  0  0  0  0  0  0  0  0  0  0
    5.6296   -1.6002    0.0000 C   0  0  0  0  0  0  0  0  0  0  0  0
    6.4421   -1.4570    0.0000 O   0  0  0  0  0  0  0  0  0  0  0  0
    5.3474   -2.3755    0.0000 N   0  0  0  0  0  0  0  0  0  0  0  0
    5.8777   -3.0075    0.0000 C   0  0  0  0  0  0  0  0  0  0  0  0
    6.6902   -2.8642    0.0000 C   0  0  0  0  0  0  0  0  0  0  0  0
    6.9724   -2.0890    0.0000 H   0  0  0  0  0  0  0  0  0  0  0  0
    7.2205   -3.4962    0.0000 N   0  0  0  0  0  0  0  0  0  0  0  0
    6.9383   -4.2715    0.0000 C   0  0  0  0  0  0  0  0  0  0  0  0
    7.4686   -4.9034    0.0000 H   0  0  0  0  0  0  0  0  0  0  0  0
    6.1259   -4.4147    0.0000 C   0  0  0  0  0  0  0  0  0  0  0  0
    5.8437   -5.1900    0.0000 C   0  0  0  0  0  0  0  0  0  0  0  0
    5.0312   -5.3332    0.0000 C   0  0  0  0  0  0  0  0  0  0  0  0
    4.5009   -4.7012    0.0000 C   0  0  0  0  0  0  0  0  0  0  0  0
    4.7831   -3.9260    0.0000 C   0  0  0  0  0  0  0  0  0  0  0  0
    3.9995   -3.6679    0.0000 H   0  0  0  0  0  0  0  0  0  0  0  0
    5.5956   -3.7827    0.0000 C   0  0  0  0  0  0  0  0  0  0  0  0
    3.6885   -4.8445    0.0000 H   0  0  0  0  0  0  0  0  0  0  0  0
    4.7491   -6.1085    0.0000 H   0  0  0  0  0  0  0  0  0  0  0  0
    6.3740   -5.8219    0.0000 H   0  0  0  0  0  0  0  0  0  0  0  0
    5.0177   -3.1318    0.0000 H   0  0  0  0  0  0  0  0  0  0  0  0
    4.3848   -0.5558    0.0000 C   0  0  0  0  0  0  0  0  0  0  0  0
    4.2265   -1.3654    0.0000 H   0  0  0  0  0  0  0  0  0  0  0  0
    5.0993   -0.1433    0.0000 H   0  0  0  0  0  0  0  0  0  0  0  0
    4.3848    0.2692    0.0000 C   0  0  0  0  0  0  0  0  0  0  0  0
    3.9315    0.9585    0.0000 H   0  0  0  0  0  0  0  0  0  0  0  0
    3.5612    0.3172    0.0000 H   0  0  0  0  0  0  0  0  0  0  0  0
    5.0993    0.6817    0.0000 O   0  0  0  0  0  0  0  0  0  0  0  0
    5.8138    0.2692    0.0000 C   0  0  0  0  0  0  0  0  0  0  0  0
    6.5282    0.6817    0.0000 C   0  0  0  0  0  0  0  0  0  0  0  0
    7.2427    0.2692    0.0000 C   0  0  0  0  0  0  0  0  0  0  0  0
    7.2427   -0.5558    0.0000 C   0  0  0  0  0  0  0  0  0  0  0  0
    7.9572   -0.9683    0.0000 Cl  0  0  0  0  0  0  0  0  0  0  0  0
    6.5282   -0.9683    0.0000 C   0  0  0  0  0  0  0  0  0  0  0  0
    7.2040   -1.4415    0.0000 H   0  0  0  0  0  0  0  0  0  0  0  0
    5.8138   -0.5558    0.0000 C   0  0  0  0  0  0  0  0  0  0  0  0
    7.9572    0.6817    0.0000 H   0  0  0  0  0  0  0  0  0  0  0  0
    6.5282    1.5067    0.0000 H   0  0  0  0  0  0  0  0  0  0  0  0
    4.4732   -2.4197    0.0000 H   0  0  0  0  0  0  0  0  0  0  0  0
    5.1691   -2.1664    0.0000 H   0  0  0  0  0  0  0  0  0  0  0  0
    3.4744   -0.6817    0.0000 H   0  0  0  0  0  0  0  0  0  0  0  0
    2.5942   -1.5587    0.0000 H   0  0  0  0  0  0  0  0  0  0  0  0
    2.6959   -2.7210    0.0000 H   0  0  0  0  0  0  0  0  0  0  0  0
    3.8582   -2.6193    0.0000 H   0  0  0  0  0  0  0  0  0  0  0  0
  1  2  1  0  0  0  0
  2  3  1  0  0  0  0
  3  4  1  0  0  0  0
  4  5  1  0  0  0  0
  5  6  2  0  0  0  0
  5  7  1  0  0  0  0
  7  8  1  0  0  0  0
  8  9  2  0  0  0  0
  9 10  1  0  0  0  0
  9 11  1  0  0  0  0
 11 12  2  0  0  0  0
 12 13  1  0  0  0  0
 12 14  1  0  0  0  0
 14 15  2  0  0  0  0
 15 16  1  0  0  0  0
 16 17  2  0  0  0  0
 17 18  1  0  0  0  0
 18 19  1  0  0  0  0
 18 20  2  0  0  0  0
  8 20  1  0  0  0  0
 14 20  1  0  0  0  0
 17 21  1  0  0  0  0
 16 22  1  0  0  0  0
 15 23  1  0  0  0  0
  7 24  1  0  0  0  0
  4 25  1  0  0  0  0
 25 26  1  0  0  0  0
 25 27  1  0  0  0  0
 25 28  1  0  0  0  0
 28 29  1  0  0  0  0
 28 30  1  0  0  0  0
 28 31  1  0  0  0  0
 31 32  1  0  0  0  0
 32 33  2  0  0  0  0
 33 34  1  0  0  0  0
 34 35  2  0  0  0  0
 35 36  1  0  0  0  0
 35 37  1  0  0  0  0
 37 38  1  0  0  0  0
 37 39  2  0  0  0  0
  4 39  1  0  0  0  0
 32 39  1  0  0  0  0
 34 40  1  0  0  0  0
 33 41  1  0  0  0  0
  3 42  1  0  0  0  0
  3 43  1  0  0  0  0
  2 44  1  0  0  0  0
  1 45  1  0  0  0  0
  1 46  1  0  0  0  0
  1 47  1  0  0  0  0
M  END
> <Potency>
10.495939498078

> <pIC50>
4.9789786813722445

> <Outcome>
Inactive

> <is_active>
0

$$$$

  Mrv1921 08232120312D          

 50 53  0  0  0  0            999 V2000
    3.4744   -0.6817    0.0000 C   0  0  0  0  0  0  0  0  0  0  0  0
    3.7565   -1.4570    0.0000 N   0  0  0  0  0  0  0  0  0  0  0  0
    3.2262   -2.0890    0.0000 C   0  0  0  0  0  0  0  0  0  0  0  0
    2.4089   -2.2013    0.0000 H   0  0  0  0  0  0  0  0  0  0  0  0
    3.1097   -2.9057    0.0000 H   0  0  0  0  0  0  0  0  0  0  0  0
    3.9796   -2.4253    0.0000 H   0  0  0  0  0  0  0  0  0  0  0  0
    4.5690   -1.6002    0.0000 C   0  0  0  0  0  0  0  0  0  0  0  0
    5.0993   -0.9683    0.0000 C   0  0  0  0  0  0  0  0  0  0  0  0
    5.6296   -1.6002    0.0000 C   0  0  0  0  0  0  0  0  0  0  0  0
    6.4421   -1.4570    0.0000 O   0  0  0  0  0  0  0  0  0  0  0  0
    5.3474   -2.3755    0.0000 N   0  0  0  0  0  0  0  0  0  0  0  0
    5.8777   -3.0075    0.0000 C   0  0  0  0  0  0  0  0  0  0  0  0
    6.6902   -2.8642    0.0000 C   0  0  0  0  0  0  0  0  0  0  0  0
    6.9724   -2.0890    0.0000 H   0  0  0  0  0  0  0  0  0  0  0  0
    7.2205   -3.4962    0.0000 N   0  0  0  0  0  0  0  0  0  0  0  0
    6.9383   -4.2715    0.0000 C   0  0  0  0  0  0  0  0  0  0  0  0
    7.4686   -4.9034    0.0000 H   0  0  0  0  0  0  0  0  0  0  0  0
    6.1259   -4.4147    0.0000 C   0  0  0  0  0  0  0  0  0  0  0  0
    5.8437   -5.1900    0.0000 C   0  0  0  0  0  0  0  0  0  0  0  0
    5.0312   -5.3332    0.0000 C   0  0  0  0  0  0  0  0  0  0  0  0
    4.5009   -4.7012    0.0000 C   0  0  0  0  0  0  0  0  0  0  0  0
    4.7831   -3.9260    0.0000 C   0  0  0  0  0  0  0  0  0  0  0  0
    3.9995   -3.6679    0.0000 H   0  0  0  0  0  0  0  0  0  0  0  0
    5.5956   -3.7827    0.0000 C   0  0  0  0  0  0  0  0  0  0  0  0
    3.6885   -4.8445    0.0000 H   0  0  0  0  0  0  0  0  0  0  0  0
    4.7491   -6.1085    0.0000 H   0  0  0  0  0  0  0  0  0  0  0  0
    6.3740   -5.8219    0.0000 H   0  0  0  0  0  0  0  0  0  0  0  0
    5.0177   -3.1318    0.0000 H   0  0  0  0  0  0  0  0  0  0  0  0
    4.3848   -0.5558    0.0000 C   0  0  0  0  0  0  0  0  0  0  0  0
    4.2265   -1.3654    0.0000 H   0  0  0  0  0  0  0  0  0  0  0  0
    5.0993   -0.1433    0.0000 H   0  0  0  0  0  0  0  0  0  0  0  0
    4.3848    0.2692    0.0000 C   0  0  0  0  0  0  0  0  0  0  0  0
    4.4765    1.0891    0.0000 H   0  0  0  0  0  0  0  0  0  0  0  0
    3.7791    0.8294    0.0000 H   0  0  0  0  0  0  0  0  0  0  0  0
    5.0993    0.6817    0.0000 O   0  0  0  0  0  0  0  0  0  0  0  0
    5.8138    0.2692    0.0000 C   0  0  0  0  0  0  0  0  0  0  0  0
    6.5282    0.6817    0.0000 C   0  0  0  0  0  0  0  0  0  0  0  0
    7.2427    0.2692    0.0000 C   0  0  0  0  0  0  0  0  0  0  0  0
    7.2427   -0.5558    0.0000 C   0  0  0  0  0  0  0  0  0  0  0  0
    7.9572   -0.9683    0.0000 Cl  0  0  0  0  0  0  0  0  0  0  0  0
    6.5282   -0.9683    0.0000 C   0  0  0  0  0  0  0  0  0  0  0  0
    7.2040   -1.4415    0.0000 H   0  0  0  0  0  0  0  0  0  0  0  0
    5.8138   -0.5558    0.0000 C   0  0  0  0  0  0  0  0  0  0  0  0
    7.9572    0.6817    0.0000 H   0  0  0  0  0  0  0  0  0  0  0  0
    6.5282    1.5067    0.0000 H   0  0  0  0  0  0  0  0  0  0  0  0
    4.4732   -2.4197    0.0000 H   0  0  0  0  0  0  0  0  0  0  0  0
    5.1691   -2.1664    0.0000 H   0  0  0  0  0  0  0  0  0  0  0  0
    3.6401    0.1264    0.0000 H   0  0  0  0  0  0  0  0  0  0  0  0
    2.7676   -0.2561    0.0000 H   0  0  0  0  0  0  0  0  0  0  0  0
    2.8375   -1.2062    0.0000 H   0  0  0  0  0  0  0  0  0  0  0  0
  1  2  1  0  0  0  0
  2  3  1  0  0  0  0
  3  4  1  0  0  0  0
  3  5  1  0  0  0  0
  3  6  1  0  0  0  0
  2  7  1  0  0  0  0
  7  8  1  0  0  0  0
  8  9  1  0  0  0  0
  9 10  2  0  0  0  0
  9 11  1  0  0  0  0
 11 12  1  0  0  0  0
 12 13  2  0  0  0  0
 13 14  1  0  0  0  0
 13 15  1  0  0  0  0
 15 16  2  0  0  0  0
 16 17  1  0  0  0  0
 16 18  1  0  0  0  0
 18 19  2  0  0  0  0
 19 20  1  0  0  0  0
 20 21  2  0  0  0  0
 21 22  1  0  0  0  0
 22 23  1  0  0  0  0
 22 24  2  0  0  0  0
 12 24  1  0  0  0  0
 18 24  1  0  0  0  0
 21 25  1  0  0  0  0
 20 26  1  0  0  0  0
 19 27  1  0  0  0  0
 11 28  1  0  0  0  0
  8 29  1  0  0  0  0
 29 30  1  0  0  0  0
 29 31  1  0  0  0  0
 29 32  1  0  0  0  0
 32 33  1  0  0  0  0
 32 34  1  0  0  0  0
 32 35  1  0  0  0  0
 35 36  1  0  0  0  0
 36 37  2  0  0  0  0
 37 38  1  0  0  0  0
 38 39  2  0  0  0  0
 39 40  1  0  0  0  0
 39 41  1  0  0  0  0
 41 42  1  0  0  0  0
 41 43  2  0  0  0  0
  8 43  1  0  0  0  0
 36 43  1  0  0  0  0
 38 44  1  0  0  0  0
 37 45  1  0  0  0  0
  7 46  1  0  0  0  0
  7 47  1  0  0  0  0
  1 48  1  0  0  0  0
  1 49  1  0  0  0  0
  1 50  1  0  0  0  0
M  END
> <Potency>
11.5330756041869

> <pIC50>
4.938054860978628

> <Outcome>
Inactive

> <is_active>
0

$$$$

  Mrv1921 08232120312D          

 44 47  0  0  0  0            999 V2000
    3.1970    1.4124    0.0000 O   0  0  0  0  0  0  0  0  0  0  0  0
    2.7845    0.6979    0.0000 S   0  0  0  0  0  0  0  0  0  0  0  0
    2.3720   -0.0165    0.0000 O   0  0  0  0  0  0  0  0  0  0  0  0
    3.4990    0.2854    0.0000 N   0  0  0  0  0  0  0  0  0  0  0  0
    3.4990   -0.5396    0.0000 C   0  0  0  0  0  0  0  0  0  0  0  0
    4.2135   -0.9521    0.0000 C   0  0  0  0  0  0  0  0  0  0  0  0
    4.9279   -0.5396    0.0000 H   0  0  0  0  0  0  0  0  0  0  0  0
    4.2135   -1.7771    0.0000 C   0  0  0  0  0  0  0  0  0  0  0  0
    4.9279   -2.1896    0.0000 H   0  0  0  0  0  0  0  0  0  0  0  0
    3.4990   -2.1896    0.0000 C   0  0  0  0  0  0  0  0  0  0  0  0
    3.4990   -3.0146    0.0000 H   0  0  0  0  0  0  0  0  0  0  0  0
    2.7845   -1.7771    0.0000 C   0  0  0  0  0  0  0  0  0  0  0  0
    2.0701   -2.1896    0.0000 H   0  0  0  0  0  0  0  0  0  0  0  0
    2.7845   -0.9521    0.0000 C   0  0  0  0  0  0  0  0  0  0  0  0
    2.0701   -0.5396    0.0000 H   0  0  0  0  0  0  0  0  0  0  0  0
    4.2135    0.6979    0.0000 H   0  0  0  0  0  0  0  0  0  0  0  0
    2.0701    1.1104    0.0000 C   0  0  0  0  0  0  0  0  0  0  0  0
    1.3556    0.6979    0.0000 C   0  0  0  0  0  0  0  0  0  0  0  0
    1.3556   -0.1271    0.0000 H   0  0  0  0  0  0  0  0  0  0  0  0
    0.6411    1.1104    0.0000 C   0  0  0  0  0  0  0  0  0  0  0  0
    0.6411    1.9354    0.0000 C   0  0  0  0  0  0  0  0  0  0  0  0
   -0.1435    2.1904    0.0000 O   0  0  0  0  0  0  0  0  0  0  0  0
   -0.6284    1.5229    0.0000 C   0  0  0  0  0  0  0  0  0  0  0  0
   -0.1435    0.8555    0.0000 O   0  0  0  0  0  0  0  0  0  0  0  0
   -1.3569    1.9103    0.0000 H   0  0  0  0  0  0  0  0  0  0  0  0
   -1.3569    1.1356    0.0000 H   0  0  0  0  0  0  0  0  0  0  0  0
    1.3556    2.3479    0.0000 C   0  0  0  0  0  0  0  0  0  0  0  0
    1.3556    3.1729    0.0000 H   0  0  0  0  0  0  0  0  0  0  0  0
    2.0701    1.9354    0.0000 C   0  0  0  0  0  0  0  0  0  0  0  0
    2.7845    2.3479    0.0000 O   0  0  0  0  0  0  0  0  0  0  0  0
    2.7845    3.1729    0.0000 C   0  0  0  0  0  0  0  0  0  0  0  0
    3.4990    3.5854    0.0000 C   0  0  0  0  0  0  0  0  0  0  0  0
    3.4990    4.4104    0.0000 C   0  0  0  0  0  0  0  0  0  0  0  0
    2.7845    4.8229    0.0000 H   0  0  0  0  0  0  0  0  0  0  0  0
    4.2135    4.8229    0.0000 C   0  0  0  0  0  0  0  0  0  0  0  0
    4.2135    5.6479    0.0000 H   0  0  0  0  0  0  0  0  0  0  0  0
    4.9279    4.4104    0.0000 C   0  0  0  0  0  0  0  0  0  0  0  0
    5.6424    4.8229    0.0000 H   0  0  0  0  0  0  0  0  0  0  0  0
    4.9279    3.5854    0.0000 C   0  0  0  0  0  0  0  0  0  0  0  0
    5.6424    3.1729    0.0000 H   0  0  0  0  0  0  0  0  0  0  0  0
    4.2135    3.1729    0.0000 C   0  0  0  0  0  0  0  0  0  0  0  0
    4.2135    2.3479    0.0000 H   0  0  0  0  0  0  0  0  0  0  0  0
    2.3312    3.8622    0.0000 H   0  0  0  0  0  0  0  0  0  0  0  0
    1.9609    3.2209    0.0000 H   0  0  0  0  0  0  0  0  0  0  0  0
  1  2  2  0  0  0  0
  2  3  2  0  0  0  0
  2  4  1  0  0  0  0
  4  5  1  0  0  0  0
  5  6  2  0  0  0  0
  6  7  1  0  0  0  0
  6  8  1  0  0  0  0
  8  9  1  0  0  0  0
  8 10  2  0  0  0  0
 10 11  1  0  0  0  0
 10 12  1  0  0  0  0
 12 13  1  0  0  0  0
 12 14  2  0  0  0  0
  5 14  1  0  0  0  0
 14 15  1  0  0  0  0
  4 16  1  0  0  0  0
  2 17  1  0  0  0  0
 17 18  2  0  0  0  0
 18 19  1  0  0  0  0
 18 20  1  0  0  0  0
 20 21  2  0  0  0  0
 21 22  1  0  0  0  0
 22 23  1  0  0  0  0
 23 24  1  0  0  0  0
 20 24  1  0  0  0  0
 23 25  1  0  0  0  0
 23 26  1  0  0  0  0
 21 27  1  0  0  0  0
 27 28  1  0  0  0  0
 27 29  2  0  0  0  0
 17 29  1  0  0  0  0
 29 30  1  0  0  0  0
 30 31  1  0  0  0  0
 31 32  1  0  0  0  0
 32 33  2  0  0  0  0
 33 34  1  0  0  0  0
 33 35  1  0  0  0  0
 35 36  1  0  0  0  0
 35 37  2  0  0  0  0
 37 38  1  0  0  0  0
 37 39  1  0  0  0  0
 39 40  1  0  0  0  0
 39 41  2  0  0  0  0
 32 41  1  0  0  0  0
 41 42  1  0  0  0  0
 31 43  1  0  0  0  0
 31 44  1  0  0  0  0
M  END
> <Potency>
72.8492434370476

> <pIC50>
4.137574954159215

> <Outcome>
Inactive

> <is_active>
0

$$$$

  Mrv1921 08232120312D          

 45 48  0  0  0  0            999 V2000
    3.2262   -2.0890    0.0000 O   0  0  0  0  0  0  0  0  0  0  0  0
    3.7565   -1.4570    0.0000 C   0  0  0  0  0  0  0  0  0  0  0  0
    3.4744   -0.6817    0.0000 O   0  0  0  0  0  0  0  0  0  0  0  0
    2.7676   -0.2561    0.0000 H   0  0  0  0  0  0  0  0  0  0  0  0
    4.5690   -1.6002    0.0000 C   0  0  0  0  0  0  0  0  0  0  0  0
    5.0993   -0.9683    0.0000 C   0  0  0  0  0  0  0  0  0  0  0  0
    5.6296   -1.6002    0.0000 C   0  0  0  0  0  0  0  0  0  0  0  0
    6.4421   -1.4570    0.0000 O   0  0  0  0  0  0  0  0  0  0  0  0
    5.3474   -2.3755    0.0000 N   0  0  0  0  0  0  0  0  0  0  0  0
    5.8777   -3.0075    0.0000 C   0  0  0  0  0  0  0  0  0  0  0  0
    6.6902   -2.8642    0.0000 C   0  0  0  0  0  0  0  0  0  0  0  0
    6.9724   -2.0890    0.0000 H   0  0  0  0  0  0  0  0  0  0  0  0
    7.2205   -3.4962    0.0000 N   0  0  0  0  0  0  0  0  0  0  0  0
    6.9383   -4.2715    0.0000 C   0  0  0  0  0  0  0  0  0  0  0  0
    7.4686   -4.9034    0.0000 H   0  0  0  0  0  0  0  0  0  0  0  0
    6.1259   -4.4147    0.0000 C   0  0  0  0  0  0  0  0  0  0  0  0
    5.8437   -5.1900    0.0000 C   0  0  0  0  0  0  0  0  0  0  0  0
    5.0312   -5.3332    0.0000 C   0  0  0  0  0  0  0  0  0  0  0  0
    4.5009   -4.7012    0.0000 C   0  0  0  0  0  0  0  0  0  0  0  0
    4.7831   -3.9260    0.0000 C   0  0  0  0  0  0  0  0  0  0  0  0
    3.9995   -3.6679    0.0000 H   0  0  0  0  0  0  0  0  0  0  0  0
    5.5956   -3.7827    0.0000 C   0  0  0  0  0  0  0  0  0  0  0  0
    3.6885   -4.8445    0.0000 H   0  0  0  0  0  0  0  0  0  0  0  0
    4.7491   -6.1085    0.0000 H   0  0  0  0  0  0  0  0  0  0  0  0
    6.3740   -5.8219    0.0000 H   0  0  0  0  0  0  0  0  0  0  0  0
    5.0177   -3.1318    0.0000 H   0  0  0  0  0  0  0  0  0  0  0  0
    4.3848   -0.5558    0.0000 C   0  0  0  0  0  0  0  0  0  0  0  0
    4.2265   -1.3654    0.0000 H   0  0  0  0  0  0  0  0  0  0  0  0
    5.0993   -0.1433    0.0000 H   0  0  0  0  0  0  0  0  0  0  0  0
    4.3848    0.2692    0.0000 C   0  0  0  0  0  0  0  0  0  0  0  0
    3.9315    0.9585    0.0000 H   0  0  0  0  0  0  0  0  0  0  0  0
    3.5612    0.3172    0.0000 H   0  0  0  0  0  0  0  0  0  0  0  0
    5.0993    0.6817    0.0000 O   0  0  0  0  0  0  0  0  0  0  0  0
    5.8138    0.2692    0.0000 C   0  0  0  0  0  0  0  0  0  0  0  0
    6.5282    0.6817    0.0000 C   0  0  0  0  0  0  0  0  0  0  0  0
    7.2427    0.2692    0.0000 C   0  0  0  0  0  0  0  0  0  0  0  0
    7.2427   -0.5558    0.0000 C   0  0  0  0  0  0  0  0  0  0  0  0
    7.9572   -0.9683    0.0000 Cl  0  0  0  0  0  0  0  0  0  0  0  0
    6.5282   -0.9683    0.0000 C   0  0  0  0  0  0  0  0  0  0  0  0
    7.2040   -1.4415    0.0000 H   0  0  0  0  0  0  0  0  0  0  0  0
    5.8138   -0.5558    0.0000 C   0  0  0  0  0  0  0  0  0  0  0  0
    7.9572    0.6817    0.0000 H   0  0  0  0  0  0  0  0  0  0  0  0
    6.5282    1.5067    0.0000 H   0  0  0  0  0  0  0  0  0  0  0  0
    4.4732   -2.4197    0.0000 H   0  0  0  0  0  0  0  0  0  0  0  0
    5.1691   -2.1664    0.0000 H   0  0  0  0  0  0  0  0  0  0  0  0
  1  2  2  0  0  0  0
  2  3  1  0  0  0  0
  3  4  1  0  0  0  0
  2  5  1  0  0  0  0
  5  6  1  0  0  0  0
  6  7  1  0  0  0  0
  7  8  2  0  0  0  0
  7  9  1  0  0  0  0
  9 10  1  0  0  0  0
 10 11  2  0  0  0  0
 11 12  1  0  0  0  0
 11 13  1  0  0  0  0
 13 14  2  0  0  0  0
 14 15  1  0  0  0  0
 14 16  1  0  0  0  0
 16 17  2  0  0  0  0
 17 18  1  0  0  0  0
 18 19  2  0  0  0  0
 19 20  1  0  0  0  0
 20 21  1  0  0  0  0
 20 22  2  0  0  0  0
 10 22  1  0  0  0  0
 16 22  1  0  0  0  0
 19 23  1  0  0  0  0
 18 24  1  0  0  0  0
 17 25  1  0  0  0  0
  9 26  1  0  0  0  0
  6 27  1  0  0  0  0
 27 28  1  0  0  0  0
 27 29  1  0  0  0  0
 27 30  1  0  0  0  0
 30 31  1  0  0  0  0
 30 32  1  0  0  0  0
 30 33  1  0  0  0  0
 33 34  1  0  0  0  0
 34 35  2  0  0  0  0
 35 36  1  0  0  0  0
 36 37  2  0  0  0  0
 37 38  1  0  0  0  0
 37 39  1  0  0  0  0
 39 40  1  0  0  0  0
 39 41  2  0  0  0  0
  6 41  1  0  0  0  0
 34 41  1  0  0  0  0
 36 42  1  0  0  0  0
 35 43  1  0  0  0  0
  5 44  1  0  0  0  0
  5 45  1  0  0  0  0
M  END
> <Potency>
31.398692270522

> <pIC50>
4.503088439554908

> <Outcome>
Inactive

> <is_active>
0

$$$$

  Mrv1921 08232120312D          

 52 56  0  0  0  0            999 V2000
    2.1434   -2.8875    0.0000 O   0  0  0  0  0  0  0  0  0  0  0  0
    1.4289   -2.4750    0.0000 C   0  0  0  0  0  0  0  0  0  0  0  0
    0.7145   -2.8875    0.0000 N   0  0  0  0  0  0  0  0  0  0  0  0
    0.7145   -3.7125    0.0000 C   0  0  0  0  0  0  0  0  0  0  0  0
    1.4289   -4.1250    0.0000 C   0  0  0  0  0  0  0  0  0  0  0  0
    2.1434   -3.7125    0.0000 H   0  0  0  0  0  0  0  0  0  0  0  0
    1.4289   -4.9500    0.0000 N   0  0  0  0  0  0  0  0  0  0  0  0
    0.7145   -5.3625    0.0000 C   0  0  0  0  0  0  0  0  0  0  0  0
    0.7145   -6.1875    0.0000 H   0  0  0  0  0  0  0  0  0  0  0  0
    0.0000   -4.9500    0.0000 C   0  0  0  0  0  0  0  0  0  0  0  0
   -0.7145   -5.3625    0.0000 C   0  0  0  0  0  0  0  0  0  0  0  0
   -1.4289   -4.9500    0.0000 C   0  0  0  0  0  0  0  0  0  0  0  0
   -1.4289   -4.1250    0.0000 C   0  0  0  0  0  0  0  0  0  0  0  0
   -0.7145   -3.7125    0.0000 C   0  0  0  0  0  0  0  0  0  0  0  0
   -0.7145   -2.8875    0.0000 H   0  0  0  0  0  0  0  0  0  0  0  0
    0.0000   -4.1250    0.0000 C   0  0  0  0  0  0  0  0  0  0  0  0
   -2.1434   -3.7125    0.0000 H   0  0  0  0  0  0  0  0  0  0  0  0
   -2.1434   -5.3625    0.0000 H   0  0  0  0  0  0  0  0  0  0  0  0
   -0.7145   -6.1875    0.0000 H   0  0  0  0  0  0  0  0  0  0  0  0
    0.0000   -2.4750    0.0000 H   0  0  0  0  0  0  0  0  0  0  0  0
    1.4289   -1.6500    0.0000 C   0  0  0  0  0  0  0  0  0  0  0  0
    0.7145   -1.2375    0.0000 C   0  0  0  0  0  0  0  0  0  0  0  0
   -0.1091   -1.2855    0.0000 H   0  0  0  0  0  0  0  0  0  0  0  0
    0.2611   -1.9268    0.0000 H   0  0  0  0  0  0  0  0  0  0  0  0
    0.7145   -0.4125    0.0000 C   0  0  0  0  0  0  0  0  0  0  0  0
    0.2611    0.2768    0.0000 H   0  0  0  0  0  0  0  0  0  0  0  0
   -0.1091   -0.3645    0.0000 H   0  0  0  0  0  0  0  0  0  0  0  0
    1.4289    0.0000    0.0000 O   0  0  0  0  0  0  0  0  0  0  0  0
    2.1434   -0.4125    0.0000 C   0  0  0  0  0  0  0  0  0  0  0  0
    2.8579    0.0000    0.0000 C   0  0  0  0  0  0  0  0  0  0  0  0
    2.8579    0.8250    0.0000 O   0  0  0  0  0  0  0  0  0  0  0  0
    2.1434    1.2375    0.0000 C   0  0  0  0  0  0  0  0  0  0  0  0
    2.1434    2.0625    0.0000 C   0  0  0  0  0  0  0  0  0  0  0  0
    1.4289    2.4750    0.0000 C   0  0  0  0  0  0  0  0  0  0  0  0
    0.7145    2.0625    0.0000 H   0  0  0  0  0  0  0  0  0  0  0  0
    1.4289    3.3000    0.0000 C   0  0  0  0  0  0  0  0  0  0  0  0
    0.7145    3.7125    0.0000 H   0  0  0  0  0  0  0  0  0  0  0  0
    2.1434    3.7125    0.0000 C   0  0  0  0  0  0  0  0  0  0  0  0
    2.1434    4.5375    0.0000 H   0  0  0  0  0  0  0  0  0  0  0  0
    2.8579    3.3000    0.0000 N   0  0  0  0  0  0  0  0  0  0  0  0
    2.8579    2.4750    0.0000 C   0  0  0  0  0  0  0  0  0  0  0  0
    3.5724    2.0625    0.0000 H   0  0  0  0  0  0  0  0  0  0  0  0
    1.3198    1.1895    0.0000 H   0  0  0  0  0  0  0  0  0  0  0  0
    1.6901    0.5482    0.0000 H   0  0  0  0  0  0  0  0  0  0  0  0
    3.5724   -0.4125    0.0000 C   0  0  0  0  0  0  0  0  0  0  0  0
    3.5724   -1.2375    0.0000 C   0  0  0  0  0  0  0  0  0  0  0  0
    4.2868   -1.6500    0.0000 Cl  0  0  0  0  0  0  0  0  0  0  0  0
    2.8579   -1.6500    0.0000 C   0  0  0  0  0  0  0  0  0  0  0  0
    3.2704   -2.3645    0.0000 H   0  0  0  0  0  0  0  0  0  0  0  0
    2.1434   -1.2375    0.0000 C   0  0  0  0  0  0  0  0  0  0  0  0
    4.2868   -0.0000    0.0000 H   0  0  0  0  0  0  0  0  0  0  0  0
    2.1434   -2.0625    0.0000 H   0  0  0  0  0  0  0  0  0  0  0  0
  1  2  2  0  0  0  0
  2  3  1  0  0  0  0
  3  4  1  0  0  0  0
  4  5  2  0  0  0  0
  5  6  1  0  0  0  0
  5  7  1  0  0  0  0
  7  8  2  0  0  0  0
  8  9  1  0  0  0  0
  8 10  1  0  0  0  0
 10 11  2  0  0  0  0
 11 12  1  0  0  0  0
 12 13  2  0  0  0  0
 13 14  1  0  0  0  0
 14 15  1  0  0  0  0
 14 16  2  0  0  0  0
  4 16  1  0  0  0  0
 10 16  1  0  0  0  0
 13 17  1  0  0  0  0
 12 18  1  0  0  0  0
 11 19  1  0  0  0  0
  3 20  1  0  0  0  0
  2 21  1  0  0  0  0
 21 22  1  0  0  0  0
 22 23  1  0  0  0  0
 22 24  1  0  0  0  0
 22 25  1  0  0  0  0
 25 26  1  0  0  0  0
 25 27  1  0  0  0  0
 25 28  1  0  0  0  0
 28 29  1  0  0  0  0
 29 30  2  0  0  0  0
 30 31  1  0  0  0  0
 31 32  1  0  0  0  0
 32 33  1  0  0  0  0
 33 34  2  0  0  0  0
 34 35  1  0  0  0  0
 34 36  1  0  0  0  0
 36 37  1  0  0  0  0
 36 38  2  0  0  0  0
 38 39  1  0  0  0  0
 38 40  1  0  0  0  0
 40 41  2  0  0  0  0
 33 41  1  0  0  0  0
 41 42  1  0  0  0  0
 32 43  1  0  0  0  0
 32 44  1  0  0  0  0
 30 45  1  0  0  0  0
 45 46  2  0  0  0  0
 46 47  1  0  0  0  0
 46 48  1  0  0  0  0
 48 49  1  0  0  0  0
 48 50  2  0  0  0  0
 21 50  1  0  0  0  0
 29 50  1  0  0  0  0
 45 51  1  0  0  0  0
 21 52  1  0  0  0  0
M  END
> <Potency>
24.9397469337591

> <pIC50>
4.603107957667001

> <Outcome>
Inactive

> <is_active>
0

$$$$

  Mrv1921 08232120312D          

 31 33  0  0  0  0            999 V2000
    1.8500    2.0625    0.0000 O   0  0  0  0  0  0  0  0  0  0  0  0
    2.5645    2.4750    0.0000 C   0  0  0  0  0  0  0  0  0  0  0  0
    2.5645    3.3000    0.0000 C   0  0  0  0  0  0  0  0  0  0  0  0
    1.8500    3.7125    0.0000 C   0  0  0  0  0  0  0  0  0  0  0  0
    1.1355    3.3000    0.0000 C   0  0  0  0  0  0  0  0  0  0  0  0
    1.1355    2.4750    0.0000 H   0  0  0  0  0  0  0  0  0  0  0  0
    0.4210    3.7125    0.0000 C   0  0  0  0  0  0  0  0  0  0  0  0
   -0.2934    3.3000    0.0000 H   0  0  0  0  0  0  0  0  0  0  0  0
    0.4210    4.5375    0.0000 C   0  0  0  0  0  0  0  0  0  0  0  0
   -0.2934    4.9500    0.0000 H   0  0  0  0  0  0  0  0  0  0  0  0
    1.1355    4.9500    0.0000 C   0  0  0  0  0  0  0  0  0  0  0  0
    1.1355    5.7750    0.0000 Cl  0  0  0  0  0  0  0  0  0  0  0  0
    1.8500    4.5375    0.0000 C   0  0  0  0  0  0  0  0  0  0  0  0
    2.5645    4.9500    0.0000 H   0  0  0  0  0  0  0  0  0  0  0  0
    3.3881    3.3480    0.0000 H   0  0  0  0  0  0  0  0  0  0  0  0
    3.0178    3.9893    0.0000 H   0  0  0  0  0  0  0  0  0  0  0  0
    3.2789    2.0625    0.0000 N   0  0  0  0  0  0  0  0  0  0  0  0
    3.2789    1.2375    0.0000 C   0  0  0  0  0  0  0  0  0  0  0  0
    3.9934    0.8250    0.0000 C   0  0  0  0  0  0  0  0  0  0  0  0
    4.7079    1.2375    0.0000 H   0  0  0  0  0  0  0  0  0  0  0  0
    3.9934    0.0000    0.0000 N   0  0  0  0  0  0  0  0  0  0  0  0
    3.2789   -0.4125    0.0000 C   0  0  0  0  0  0  0  0  0  0  0  0
    3.2789   -1.2375    0.0000 H   0  0  0  0  0  0  0  0  0  0  0  0
    2.5645    0.0000    0.0000 C   0  0  0  0  0  0  0  0  0  0  0  0
    1.7798   -0.2549    0.0000 N   0  0  0  0  0  0  0  0  0  0  0  0
    1.2949    0.4125    0.0000 N   0  0  0  0  0  0  0  0  0  0  0  0
    1.7798    1.0799    0.0000 C   0  0  0  0  0  0  0  0  0  0  0  0
    1.5249    1.8646    0.0000 H   0  0  0  0  0  0  0  0  0  0  0  0
    2.5645    0.8250    0.0000 C   0  0  0  0  0  0  0  0  0  0  0  0
    1.5249   -1.0396    0.0000 H   0  0  0  0  0  0  0  0  0  0  0  0
    3.9934    2.4750    0.0000 H   0  0  0  0  0  0  0  0  0  0  0  0
  1  2  2  0  0  0  0
  2  3  1  0  0  0  0
  3  4  1  0  0  0  0
  4  5  2  0  0  0  0
  5  6  1  0  0  0  0
  5  7  1  0  0  0  0
  7  8  1  0  0  0  0
  7  9  2  0  0  0  0
  9 10  1  0  0  0  0
  9 11  1  0  0  0  0
 11 12  1  0  0  0  0
 11 13  2  0  0  0  0
  4 13  1  0  0  0  0
 13 14  1  0  0  0  0
  3 15  1  0  0  0  0
  3 16  1  0  0  0  0
  2 17  1  0  0  0  0
 17 18  1  0  0  0  0
 18 19  1  0  0  0  0
 19 20  1  0  0  0  0
 19 21  2  0  0  0  0
 21 22  1  0  0  0  0
 22 23  1  0  0  0  0
 22 24  2  0  0  0  0
 24 25  1  0  0  0  0
 25 26  1  0  0  0  0
 26 27  2  0  0  0  0
 27 28  1  0  0  0  0
 27 29  1  0  0  0  0
 18 29  2  0  0  0  0
 24 29  1  0  0  0  0
 25 30  1  0  0  0  0
 17 31  1  0  0  0  0
M  END
> <Potency>
21.8158142685698

> <pIC50>
4.661228572466436

> <Outcome>
Inactive

> <is_active>
0

$$$$

  Mrv1921 08232120312D          

 37 39  0  0  0  0            999 V2000
    0.0000   -2.4750    0.0000 O   0  0  0  0  0  0  0  0  0  0  0  0
    0.7145   -2.8875    0.0000 C   0  0  0  0  0  0  0  0  0  0  0  0
    0.7145   -3.7125    0.0000 C   0  0  0  0  0  0  0  0  0  0  0  0
    0.0000   -4.1250    0.0000 C   0  0  0  0  0  0  0  0  0  0  0  0
    0.0000   -4.9500    0.0000 C   0  0  0  0  0  0  0  0  0  0  0  0
    0.7145   -5.3625    0.0000 H   0  0  0  0  0  0  0  0  0  0  0  0
   -0.7145   -5.3625    0.0000 C   0  0  0  0  0  0  0  0  0  0  0  0
   -0.7145   -6.1875    0.0000 H   0  0  0  0  0  0  0  0  0  0  0  0
   -1.4289   -4.9500    0.0000 C   0  0  0  0  0  0  0  0  0  0  0  0
   -2.1434   -5.3625    0.0000 H   0  0  0  0  0  0  0  0  0  0  0  0
   -1.4289   -4.1250    0.0000 C   0  0  0  0  0  0  0  0  0  0  0  0
   -2.1434   -3.7125    0.0000 Cl  0  0  0  0  0  0  0  0  0  0  0  0
   -0.7145   -3.7125    0.0000 C   0  0  0  0  0  0  0  0  0  0  0  0
   -0.7145   -2.8875    0.0000 H   0  0  0  0  0  0  0  0  0  0  0  0
    1.1678   -4.4018    0.0000 H   0  0  0  0  0  0  0  0  0  0  0  0
    1.5381   -3.7605    0.0000 H   0  0  0  0  0  0  0  0  0  0  0  0
    1.4289   -2.4750    0.0000 N   0  0  0  0  0  0  0  0  0  0  0  0
    1.4289   -1.6500    0.0000 C   0  0  0  0  0  0  0  0  0  0  0  0
    0.7145   -1.2375    0.0000 C   0  0  0  0  0  0  0  0  0  0  0  0
   -0.1091   -1.2855    0.0000 H   0  0  0  0  0  0  0  0  0  0  0  0
    0.2611   -1.9268    0.0000 H   0  0  0  0  0  0  0  0  0  0  0  0
    0.7145   -0.4125    0.0000 O   0  0  0  0  0  0  0  0  0  0  0  0
    1.4289    0.0000    0.0000 C   0  0  0  0  0  0  0  0  0  0  0  0
    1.7992    0.7372    0.0000 H   0  0  0  0  0  0  0  0  0  0  0  0
    1.0587    0.7372    0.0000 H   0  0  0  0  0  0  0  0  0  0  0  0
    2.1434   -0.4125    0.0000 C   0  0  0  0  0  0  0  0  0  0  0  0
    2.8579    0.0000    0.0000 C   0  0  0  0  0  0  0  0  0  0  0  0
    3.5724   -0.4125    0.0000 C   0  0  0  0  0  0  0  0  0  0  0  0
    3.5724   -1.2375    0.0000 C   0  0  0  0  0  0  0  0  0  0  0  0
    2.8579   -1.6500    0.0000 C   0  0  0  0  0  0  0  0  0  0  0  0
    3.2704   -2.3645    0.0000 H   0  0  0  0  0  0  0  0  0  0  0  0
    2.1434   -1.2375    0.0000 C   0  0  0  0  0  0  0  0  0  0  0  0
    4.2868   -1.6500    0.0000 H   0  0  0  0  0  0  0  0  0  0  0  0
    4.2868   -0.0000    0.0000 H   0  0  0  0  0  0  0  0  0  0  0  0
    2.8579    0.8250    0.0000 H   0  0  0  0  0  0  0  0  0  0  0  0
    2.1434   -2.0625    0.0000 H   0  0  0  0  0  0  0  0  0  0  0  0
    2.1434   -2.8875    0.0000 H   0  0  0  0  0  0  0  0  0  0  0  0
  1  2  2  0  0  0  0
  2  3  1  0  0  0  0
  3  4  1  0  0  0  0
  4  5  2  0  0  0  0
  5  6  1  0  0  0  0
  5  7  1  0  0  0  0
  7  8  1  0  0  0  0
  7  9  2  0  0  0  0
  9 10  1  0  0  0  0
  9 11  1  0  0  0  0
 11 12  1  0  0  0  0
 11 13  2  0  0  0  0
  4 13  1  0  0  0  0
 13 14  1  0  0  0  0
  3 15  1  0  0  0  0
  3 16  1  0  0  0  0
  2 17  1  0  0  0  0
 17 18  1  0  0  0  0
 18 19  1  0  0  0  0
 19 20  1  0  0  0  0
 19 21  1  0  0  0  0
 19 22  1  0  0  0  0
 22 23  1  0  0  0  0
 23 24  1  0  0  0  0
 23 25  1  0  0  0  0
 23 26  1  0  0  0  0
 26 27  2  0  0  0  0
 27 28  1  0  0  0  0
 28 29  2  0  0  0  0
 29 30  1  0  0  0  0
 30 31  1  0  0  0  0
 30 32  2  0  0  0  0
 18 32  1  0  0  0  0
 26 32  1  0  0  0  0
 29 33  1  0  0  0  0
 28 34  1  0  0  0  0
 27 35  1  0  0  0  0
 18 36  1  0  0  0  0
 17 37  1  0  0  0  0
M  END
> <Potency>
68.9520443122952

> <pIC50>
4.161452853195345

> <Outcome>
Inactive

> <is_active>
0

$$$$

  Mrv1921 08232120312D          

 32 33  0  0  0  0            999 V2000
    3.5724   -1.2375    0.0000 C   0  0  0  0  0  0  0  0  0  0  0  0
    2.8579   -1.6500    0.0000 O   0  0  0  0  0  0  0  0  0  0  0  0
    2.8579   -2.4750    0.0000 C   0  0  0  0  0  0  0  0  0  0  0  0
    3.5724   -2.8875    0.0000 C   0  0  0  0  0  0  0  0  0  0  0  0
    4.2868   -2.4750    0.0000 H   0  0  0  0  0  0  0  0  0  0  0  0
    3.5724   -3.7125    0.0000 C   0  0  0  0  0  0  0  0  0  0  0  0
    4.2868   -4.1250    0.0000 H   0  0  0  0  0  0  0  0  0  0  0  0
    2.8579   -4.1250    0.0000 N   0  0  0  0  0  0  0  0  0  0  0  0
    2.1434   -3.7125    0.0000 C   0  0  0  0  0  0  0  0  0  0  0  0
    1.4289   -4.1250    0.0000 H   0  0  0  0  0  0  0  0  0  0  0  0
    2.1434   -2.8875    0.0000 C   0  0  0  0  0  0  0  0  0  0  0  0
    1.4289   -2.4750    0.0000 N   0  0  0  0  0  0  0  0  0  0  0  0
    1.4289   -1.6500    0.0000 C   0  0  0  0  0  0  0  0  0  0  0  0
    2.1434   -1.2375    0.0000 O   0  0  0  0  0  0  0  0  0  0  0  0
    0.7145   -1.2375    0.0000 C   0  0  0  0  0  0  0  0  0  0  0  0
    0.7145   -0.4125    0.0000 C   0  0  0  0  0  0  0  0  0  0  0  0
    0.0000    0.0000    0.0000 C   0  0  0  0  0  0  0  0  0  0  0  0
   -0.7145   -0.4125    0.0000 H   0  0  0  0  0  0  0  0  0  0  0  0
    0.0000    0.8250    0.0000 C   0  0  0  0  0  0  0  0  0  0  0  0
   -0.7145    1.2375    0.0000 H   0  0  0  0  0  0  0  0  0  0  0  0
    0.7145    1.2375    0.0000 C   0  0  0  0  0  0  0  0  0  0  0  0
    0.7145    2.0625    0.0000 H   0  0  0  0  0  0  0  0  0  0  0  0
    1.4289    0.8250    0.0000 C   0  0  0  0  0  0  0  0  0  0  0  0
    2.1434    1.2375    0.0000 Cl  0  0  0  0  0  0  0  0  0  0  0  0
    1.4289    0.0000    0.0000 C   0  0  0  0  0  0  0  0  0  0  0  0
    2.1434   -0.4125    0.0000 H   0  0  0  0  0  0  0  0  0  0  0  0
   -0.1091   -1.2855    0.0000 H   0  0  0  0  0  0  0  0  0  0  0  0
    0.2611   -1.9268    0.0000 H   0  0  0  0  0  0  0  0  0  0  0  0
    0.7145   -2.8875    0.0000 H   0  0  0  0  0  0  0  0  0  0  0  0
    3.9849   -1.9520    0.0000 H   0  0  0  0  0  0  0  0  0  0  0  0
    4.2868   -0.8250    0.0000 H   0  0  0  0  0  0  0  0  0  0  0  0
    3.1599   -0.5230    0.0000 H   0  0  0  0  0  0  0  0  0  0  0  0
  1  2  1  0  0  0  0
  2  3  1  0  0  0  0
  3  4  2  0  0  0  0
  4  5  1  0  0  0  0
  4  6  1  0  0  0  0
  6  7  1  0  0  0  0
  6  8  2  0  0  0  0
  8  9  1  0  0  0  0
  9 10  1  0  0  0  0
  9 11  2  0  0  0  0
  3 11  1  0  0  0  0
 11 12  1  0  0  0  0
 12 13  1  0  0  0  0
 13 14  2  0  0  0  0
 13 15  1  0  0  0  0
 15 16  1  0  0  0  0
 16 17  2  0  0  0  0
 17 18  1  0  0  0  0
 17 19  1  0  0  0  0
 19 20  1  0  0  0  0
 19 21  2  0  0  0  0
 21 22  1  0  0  0  0
 21 23  1  0  0  0  0
 23 24  1  0  0  0  0
 23 25  2  0  0  0  0
 16 25  1  0  0  0  0
 25 26  1  0  0  0  0
 15 27  1  0  0  0  0
 15 28  1  0  0  0  0
 12 29  1  0  0  0  0
  1 30  1  0  0  0  0
  1 31  1  0  0  0  0
  1 32  1  0  0  0  0
M  END
> <Potency>
21.5515545541569

> <pIC50>
4.666521397895721

> <Outcome>
Inactive

> <is_active>
0

$$$$

  Mrv1921 08232120312D          

 41 42  0  0  0  0            999 V2000
    4.2868   -0.8250    0.0000 C   0  0  0  0  0  0  0  0  0  0  0  0
    3.5724   -1.2375    0.0000 C   0  0  0  0  0  0  0  0  0  0  0  0
    3.1599   -0.5230    0.0000 C   0  0  0  0  0  0  0  0  0  0  0  0
    3.0522    0.2949    0.0000 H   0  0  0  0  0  0  0  0  0  0  0  0
    2.3630   -0.3095    0.0000 H   0  0  0  0  0  0  0  0  0  0  0  0
    2.6576   -1.1775    0.0000 H   0  0  0  0  0  0  0  0  0  0  0  0
    3.9849   -1.9520    0.0000 C   0  0  0  0  0  0  0  0  0  0  0  0
    3.1669   -2.0597    0.0000 H   0  0  0  0  0  0  0  0  0  0  0  0
    3.7713   -2.7489    0.0000 H   0  0  0  0  0  0  0  0  0  0  0  0
    4.6394   -2.4542    0.0000 H   0  0  0  0  0  0  0  0  0  0  0  0
    2.8579   -1.6500    0.0000 O   0  0  0  0  0  0  0  0  0  0  0  0
    2.8579   -2.4750    0.0000 C   0  0  0  0  0  0  0  0  0  0  0  0
    3.5724   -2.8875    0.0000 C   0  0  0  0  0  0  0  0  0  0  0  0
    4.3037   -3.2693    0.0000 H   0  0  0  0  0  0  0  0  0  0  0  0
    3.5724   -3.7125    0.0000 C   0  0  0  0  0  0  0  0  0  0  0  0
    3.9924   -4.4226    0.0000 H   0  0  0  0  0  0  0  0  0  0  0  0
    2.8579   -4.1250    0.0000 N   0  0  0  0  0  0  0  0  0  0  0  0
    2.1434   -3.7125    0.0000 C   0  0  0  0  0  0  0  0  0  0  0  0
    1.4289   -4.1250    0.0000 H   0  0  0  0  0  0  0  0  0  0  0  0
    2.1434   -2.8875    0.0000 C   0  0  0  0  0  0  0  0  0  0  0  0
    1.4289   -2.4750    0.0000 N   0  0  0  0  0  0  0  0  0  0  0  0
    1.4289   -1.6500    0.0000 C   0  0  0  0  0  0  0  0  0  0  0  0
    2.1434   -1.2375    0.0000 O   0  0  0  0  0  0  0  0  0  0  0  0
    0.7145   -1.2375    0.0000 C   0  0  0  0  0  0  0  0  0  0  0  0
    0.7145   -0.4125    0.0000 C   0  0  0  0  0  0  0  0  0  0  0  0
    0.0000    0.0000    0.0000 C   0  0  0  0  0  0  0  0  0  0  0  0
   -0.7145   -0.4125    0.0000 H   0  0  0  0  0  0  0  0  0  0  0  0
    0.0000    0.8250    0.0000 C   0  0  0  0  0  0  0  0  0  0  0  0
   -0.7145    1.2375    0.0000 H   0  0  0  0  0  0  0  0  0  0  0  0
    0.7145    1.2375    0.0000 C   0  0  0  0  0  0  0  0  0  0  0  0
    0.7145    2.0625    0.0000 H   0  0  0  0  0  0  0  0  0  0  0  0
    1.4289    0.8250    0.0000 C   0  0  0  0  0  0  0  0  0  0  0  0
    2.1434    1.2375    0.0000 Cl  0  0  0  0  0  0  0  0  0  0  0  0
    1.4289    0.0000    0.0000 C   0  0  0  0  0  0  0  0  0  0  0  0
    2.1434   -0.4125    0.0000 H   0  0  0  0  0  0  0  0  0  0  0  0
   -0.1091   -1.2855    0.0000 H   0  0  0  0  0  0  0  0  0  0  0  0
    0.2611   -1.9268    0.0000 H   0  0  0  0  0  0  0  0  0  0  0  0
    0.7145   -2.8875    0.0000 H   0  0  0  0  0  0  0  0  0  0  0  0
    4.6993   -1.5395    0.0000 H   0  0  0  0  0  0  0  0  0  0  0  0
    5.0013   -0.4125    0.0000 H   0  0  0  0  0  0  0  0  0  0  0  0
    3.8743   -0.1105    0.0000 H   0  0  0  0  0  0  0  0  0  0  0  0
  1  2  1  0  0  0  0
  2  3  1  0  0  0  0
  3  4  1  0  0  0  0
  3  5  1  0  0  0  0
  3  6  1  0  0  0  0
  2  7  1  0  0  0  0
  7  8  1  0  0  0  0
  7  9  1  0  0  0  0
  7 10  1  0  0  0  0
  2 11  1  0  0  0  0
 11 12  1  0  0  0  0
 12 13  2  0  0  0  0
 13 14  1  0  0  0  0
 13 15  1  0  0  0  0
 15 16  1  0  0  0  0
 15 17  2  0  0  0  0
 17 18  1  0  0  0  0
 18 19  1  0  0  0  0
 18 20  2  0  0  0  0
 12 20  1  0  0  0  0
 20 21  1  0  0  0  0
 21 22  1  0  0  0  0
 22 23  2  0  0  0  0
 22 24  1  0  0  0  0
 24 25  1  0  0  0  0
 25 26  2  0  0  0  0
 26 27  1  0  0  0  0
 26 28  1  0  0  0  0
 28 29  1  0  0  0  0
 28 30  2  0  0  0  0
 30 31  1  0  0  0  0
 30 32  1  0  0  0  0
 32 33  1  0  0  0  0
 32 34  2  0  0  0  0
 25 34  1  0  0  0  0
 34 35  1  0  0  0  0
 24 36  1  0  0  0  0
 24 37  1  0  0  0  0
 21 38  1  0  0  0  0
  1 39  1  0  0  0  0
  1 40  1  0  0  0  0
  1 41  1  0  0  0  0
M  END
> <Potency>
22.9226567408969

> <pIC50>
4.639735048962697

> <Outcome>
Inactive

> <is_active>
0

$$$$

  Mrv1921 08232120312D          

 32 34  0  0  0  0            999 V2000
   -0.4752   -1.7084    0.0000 O   0  0  0  0  0  0  0  0  0  0  0  0
    0.0768   -2.3215    0.0000 C   0  0  0  0  0  0  0  0  0  0  0  0
   -0.1781   -3.1062    0.0000 C   0  0  0  0  0  0  0  0  0  0  0  0
   -0.9851   -3.2777    0.0000 C   0  0  0  0  0  0  0  0  0  0  0  0
   -1.2400   -4.0623    0.0000 C   0  0  0  0  0  0  0  0  0  0  0  0
   -0.6880   -4.6754    0.0000 H   0  0  0  0  0  0  0  0  0  0  0  0
   -2.0470   -4.2338    0.0000 C   0  0  0  0  0  0  0  0  0  0  0  0
   -2.3020   -5.0184    0.0000 H   0  0  0  0  0  0  0  0  0  0  0  0
   -2.5990   -3.6207    0.0000 C   0  0  0  0  0  0  0  0  0  0  0  0
   -3.4060   -3.7923    0.0000 H   0  0  0  0  0  0  0  0  0  0  0  0
   -2.3441   -2.8361    0.0000 C   0  0  0  0  0  0  0  0  0  0  0  0
   -2.8961   -2.2230    0.0000 Cl  0  0  0  0  0  0  0  0  0  0  0  0
   -1.5371   -2.6646    0.0000 C   0  0  0  0  0  0  0  0  0  0  0  0
   -1.2822   -1.8800    0.0000 H   0  0  0  0  0  0  0  0  0  0  0  0
    0.0400   -3.9018    0.0000 H   0  0  0  0  0  0  0  0  0  0  0  0
    0.5903   -3.4063    0.0000 H   0  0  0  0  0  0  0  0  0  0  0  0
    0.8838   -2.1500    0.0000 N   0  0  0  0  0  0  0  0  0  0  0  0
    1.1387   -1.3654    0.0000 C   0  0  0  0  0  0  0  0  0  0  0  0
    0.6538   -0.6979    0.0000 C   0  0  0  0  0  0  0  0  0  0  0  0
   -0.1712   -0.6979    0.0000 H   0  0  0  0  0  0  0  0  0  0  0  0
    1.1387   -0.0305    0.0000 N   0  0  0  0  0  0  0  0  0  0  0  0
    1.9233   -0.2854    0.0000 N   0  0  0  0  0  0  0  0  0  0  0  0
    2.6378    0.1271    0.0000 C   0  0  0  0  0  0  0  0  0  0  0  0
    3.3523   -0.2854    0.0000 C   0  0  0  0  0  0  0  0  0  0  0  0
    3.3523   -1.1104    0.0000 C   0  0  0  0  0  0  0  0  0  0  0  0
    2.6378   -1.5229    0.0000 C   0  0  0  0  0  0  0  0  0  0  0  0
    2.6378   -2.3479    0.0000 H   0  0  0  0  0  0  0  0  0  0  0  0
    1.9233   -1.1104    0.0000 C   0  0  0  0  0  0  0  0  0  0  0  0
    4.0668   -1.5229    0.0000 H   0  0  0  0  0  0  0  0  0  0  0  0
    4.0668    0.1271    0.0000 H   0  0  0  0  0  0  0  0  0  0  0  0
    2.6378    0.9521    0.0000 H   0  0  0  0  0  0  0  0  0  0  0  0
    1.4358   -2.7631    0.0000 H   0  0  0  0  0  0  0  0  0  0  0  0
  1  2  2  0  0  0  0
  2  3  1  0  0  0  0
  3  4  1  0  0  0  0
  4  5  2  0  0  0  0
  5  6  1  0  0  0  0
  5  7  1  0  0  0  0
  7  8  1  0  0  0  0
  7  9  2  0  0  0  0
  9 10  1  0  0  0  0
  9 11  1  0  0  0  0
 11 12  1  0  0  0  0
 11 13  2  0  0  0  0
  4 13  1  0  0  0  0
 13 14  1  0  0  0  0
  3 15  1  0  0  0  0
  3 16  1  0  0  0  0
  2 17  1  0  0  0  0
 17 18  1  0  0  0  0
 18 19  1  0  0  0  0
 19 20  1  0  0  0  0
 19 21  2  0  0  0  0
 21 22  1  0  0  0  0
 22 23  1  0  0  0  0
 23 24  2  0  0  0  0
 24 25  1  0  0  0  0
 25 26  2  0  0  0  0
 26 27  1  0  0  0  0
 26 28  1  0  0  0  0
 18 28  2  0  0  0  0
 22 28  1  0  0  0  0
 25 29  1  0  0  0  0
 24 30  1  0  0  0  0
 23 31  1  0  0  0  0
 17 32  1  0  0  0  0
M  END
> <Potency>
11.3460157722443

> <pIC50>
4.945156617052481

> <Outcome>
Inactive

> <is_active>
0

$$$$

  Mrv1921 08232120312D          

 32 34  0  0  0  0            999 V2000
    0.0000   -2.4750    0.0000 O   0  0  0  0  0  0  0  0  0  0  0  0
    0.7145   -2.8875    0.0000 C   0  0  0  0  0  0  0  0  0  0  0  0
    0.7145   -3.7125    0.0000 C   0  0  0  0  0  0  0  0  0  0  0  0
    0.0000   -4.1250    0.0000 C   0  0  0  0  0  0  0  0  0  0  0  0
    0.0000   -4.9500    0.0000 C   0  0  0  0  0  0  0  0  0  0  0  0
    0.7145   -5.3625    0.0000 H   0  0  0  0  0  0  0  0  0  0  0  0
   -0.7145   -5.3625    0.0000 C   0  0  0  0  0  0  0  0  0  0  0  0
   -0.7145   -6.1875    0.0000 H   0  0  0  0  0  0  0  0  0  0  0  0
   -1.4289   -4.9500    0.0000 C   0  0  0  0  0  0  0  0  0  0  0  0
   -2.1434   -5.3625    0.0000 H   0  0  0  0  0  0  0  0  0  0  0  0
   -1.4289   -4.1250    0.0000 C   0  0  0  0  0  0  0  0  0  0  0  0
   -2.1434   -3.7125    0.0000 Cl  0  0  0  0  0  0  0  0  0  0  0  0
   -0.7145   -3.7125    0.0000 C   0  0  0  0  0  0  0  0  0  0  0  0
   -0.7145   -2.8875    0.0000 H   0  0  0  0  0  0  0  0  0  0  0  0
    1.1678   -4.4018    0.0000 H   0  0  0  0  0  0  0  0  0  0  0  0
    1.5381   -3.7605    0.0000 H   0  0  0  0  0  0  0  0  0  0  0  0
    1.4289   -2.4750    0.0000 N   0  0  0  0  0  0  0  0  0  0  0  0
    1.4289   -1.6500    0.0000 C   0  0  0  0  0  0  0  0  0  0  0  0
    0.7145   -1.2375    0.0000 C   0  0  0  0  0  0  0  0  0  0  0  0
    0.0000   -1.6500    0.0000 H   0  0  0  0  0  0  0  0  0  0  0  0
    0.7145   -0.4125    0.0000 N   0  0  0  0  0  0  0  0  0  0  0  0
    1.4289    0.0000    0.0000 C   0  0  0  0  0  0  0  0  0  0  0  0
    1.4289    0.8250    0.0000 H   0  0  0  0  0  0  0  0  0  0  0  0
    2.1434   -0.4125    0.0000 C   0  0  0  0  0  0  0  0  0  0  0  0
    2.8579    0.0000    0.0000 N   0  0  0  0  0  0  0  0  0  0  0  0
    3.5724   -0.4125    0.0000 C   0  0  0  0  0  0  0  0  0  0  0  0
    3.5724   -1.2375    0.0000 C   0  0  0  0  0  0  0  0  0  0  0  0
    2.8579   -1.6500    0.0000 N   0  0  0  0  0  0  0  0  0  0  0  0
    2.1434   -1.2375    0.0000 C   0  0  0  0  0  0  0  0  0  0  0  0
    4.2868   -1.6500    0.0000 H   0  0  0  0  0  0  0  0  0  0  0  0
    4.2868   -0.0000    0.0000 H   0  0  0  0  0  0  0  0  0  0  0  0
    2.1434   -2.8875    0.0000 H   0  0  0  0  0  0  0  0  0  0  0  0
  1  2  2  0  0  0  0
  2  3  1  0  0  0  0
  3  4  1  0  0  0  0
  4  5  2  0  0  0  0
  5  6  1  0  0  0  0
  5  7  1  0  0  0  0
  7  8  1  0  0  0  0
  7  9  2  0  0  0  0
  9 10  1  0  0  0  0
  9 11  1  0  0  0  0
 11 12  1  0  0  0  0
 11 13  2  0  0  0  0
  4 13  1  0  0  0  0
 13 14  1  0  0  0  0
  3 15  1  0  0  0  0
  3 16  1  0  0  0  0
  2 17  1  0  0  0  0
 17 18  1  0  0  0  0
 18 19  2  0  0  0  0
 19 20  1  0  0  0  0
 19 21  1  0  0  0  0
 21 22  2  0  0  0  0
 22 23  1  0  0  0  0
 22 24  1  0  0  0  0
 24 25  2  0  0  0  0
 25 26  1  0  0  0  0
 26 27  2  0  0  0  0
 27 28  1  0  0  0  0
 28 29  2  0  0  0  0
 18 29  1  0  0  0  0
 24 29  1  0  0  0  0
 27 30  1  0  0  0  0
 26 31  1  0  0  0  0
 17 32  1  0  0  0  0
M  END
> <Potency>
76.0415338327822

> <pIC50>
4.1189491315699405

> <Outcome>
Inactive

> <is_active>
0

$$$$

  Mrv1921 08232120312D          

 37 39  0  0  0  0            999 V2000
   -1.4289    0.8250    0.0000 O   0  0  0  0  0  0  0  0  0  0  0  0
   -0.7145    1.2375    0.0000 C   0  0  0  0  0  0  0  0  0  0  0  0
   -0.7145    2.0625    0.0000 C   0  0  0  0  0  0  0  0  0  0  0  0
   -1.4289    2.4750    0.0000 C   0  0  0  0  0  0  0  0  0  0  0  0
   -2.1434    2.0625    0.0000 C   0  0  0  0  0  0  0  0  0  0  0  0
   -2.1434    1.2375    0.0000 H   0  0  0  0  0  0  0  0  0  0  0  0
   -2.8579    2.4750    0.0000 C   0  0  0  0  0  0  0  0  0  0  0  0
   -3.5724    2.0625    0.0000 H   0  0  0  0  0  0  0  0  0  0  0  0
   -2.8579    3.3000    0.0000 C   0  0  0  0  0  0  0  0  0  0  0  0
   -3.5724    3.7125    0.0000 H   0  0  0  0  0  0  0  0  0  0  0  0
   -2.1434    3.7125    0.0000 C   0  0  0  0  0  0  0  0  0  0  0  0
   -2.1434    4.5375    0.0000 Cl  0  0  0  0  0  0  0  0  0  0  0  0
   -1.4289    3.3000    0.0000 C   0  0  0  0  0  0  0  0  0  0  0  0
   -0.7145    3.7125    0.0000 H   0  0  0  0  0  0  0  0  0  0  0  0
    0.1091    2.1105    0.0000 H   0  0  0  0  0  0  0  0  0  0  0  0
   -0.2611    2.7518    0.0000 H   0  0  0  0  0  0  0  0  0  0  0  0
    0.0000    0.8250    0.0000 N   0  0  0  0  0  0  0  0  0  0  0  0
    0.0000   -0.0000    0.0000 C   0  0  0  0  0  0  0  0  0  0  0  0
   -0.7145   -0.4125    0.0000 C   0  0  0  0  0  0  0  0  0  0  0  0
   -1.4289   -0.0000    0.0000 H   0  0  0  0  0  0  0  0  0  0  0  0
   -0.7145   -1.2375    0.0000 N   0  0  0  0  0  0  0  0  0  0  0  0
    0.0000   -1.6500    0.0000 C   0  0  0  0  0  0  0  0  0  0  0  0
    0.0000   -2.4750    0.0000 H   0  0  0  0  0  0  0  0  0  0  0  0
    0.7145   -1.2375    0.0000 C   0  0  0  0  0  0  0  0  0  0  0  0
    0.7145   -0.4125    0.0000 C   0  0  0  0  0  0  0  0  0  0  0  0
    1.4289   -0.0000    0.0000 N   0  0  0  0  0  0  0  0  0  0  0  0
    2.1434   -0.4125    0.0000 C   0  0  0  0  0  0  0  0  0  0  0  0
    2.1434   -1.2375    0.0000 C   0  0  0  0  0  0  0  0  0  0  0  0
    1.4289   -1.6500    0.0000 C   0  0  0  0  0  0  0  0  0  0  0  0
    1.0587   -2.3872    0.0000 H   0  0  0  0  0  0  0  0  0  0  0  0
    1.7992   -2.3872    0.0000 H   0  0  0  0  0  0  0  0  0  0  0  0
    2.5968   -1.9268    0.0000 H   0  0  0  0  0  0  0  0  0  0  0  0
    2.9670   -1.2855    0.0000 H   0  0  0  0  0  0  0  0  0  0  0  0
    2.9670   -0.3645    0.0000 H   0  0  0  0  0  0  0  0  0  0  0  0
    2.5968    0.2768    0.0000 H   0  0  0  0  0  0  0  0  0  0  0  0
    1.4289    0.8250    0.0000 H   0  0  0  0  0  0  0  0  0  0  0  0
    0.7145    1.2375    0.0000 H   0  0  0  0  0  0  0  0  0  0  0  0
  1  2  2  0  0  0  0
  2  3  1  0  0  0  0
  3  4  1  0  0  0  0
  4  5  2  0  0  0  0
  5  6  1  0  0  0  0
  5  7  1  0  0  0  0
  7  8  1  0  0  0  0
  7  9  2  0  0  0  0
  9 10  1  0  0  0  0
  9 11  1  0  0  0  0
 11 12  1  0  0  0  0
 11 13  2  0  0  0  0
  4 13  1  0  0  0  0
 13 14  1  0  0  0  0
  3 15  1  0  0  0  0
  3 16  1  0  0  0  0
  2 17  1  0  0  0  0
 17 18  1  0  0  0  0
 18 19  2  0  0  0  0
 19 20  1  0  0  0  0
 19 21  1  0  0  0  0
 21 22  2  0  0  0  0
 22 23  1  0  0  0  0
 22 24  1  0  0  0  0
 24 25  2  0  0  0  0
 18 25  1  0  0  0  0
 25 26  1  0  0  0  0
 26 27  1  0  0  0  0
 27 28  1  0  0  0  0
 28 29  1  0  0  0  0
 24 29  1  0  0  0  0
 29 30  1  0  0  0  0
 29 31  1  0  0  0  0
 28 32  1  0  0  0  0
 28 33  1  0  0  0  0
 27 34  1  0  0  0  0
 27 35  1  0  0  0  0
 26 36  1  0  0  0  0
 17 37  1  0  0  0  0
M  END
> <Potency>
37.9977889365768

> <pIC50>
4.420241673924807

> <Outcome>
Inactive

> <is_active>
0

$$$$

  Mrv1921 08232120312D          

 35 37  0  0  0  0            999 V2000
    1.4289   -3.3000    0.0000 N   0  0  0  0  0  0  0  0  0  0  0  0
    1.4289   -2.4750    0.0000 C   0  0  0  0  0  0  0  0  0  0  0  0
    1.4289   -1.6500    0.0000 C   0  0  0  0  0  0  0  0  0  0  0  0
    0.7145   -1.2375    0.0000 N   0  0  0  0  0  0  0  0  0  0  0  0
    0.7145   -0.4125    0.0000 C   0  0  0  0  0  0  0  0  0  0  0  0
    0.0000    0.0000    0.0000 H   0  0  0  0  0  0  0  0  0  0  0  0
    1.4289    0.0000    0.0000 C   0  0  0  0  0  0  0  0  0  0  0  0
    1.4289    0.8250    0.0000 N   0  0  0  0  0  0  0  0  0  0  0  0
    2.1434    1.2375    0.0000 C   0  0  0  0  0  0  0  0  0  0  0  0
    2.8579    0.8250    0.0000 O   0  0  0  0  0  0  0  0  0  0  0  0
    2.1434    2.0625    0.0000 C   0  0  0  0  0  0  0  0  0  0  0  0
    2.8579    2.4750    0.0000 C   0  0  0  0  0  0  0  0  0  0  0  0
    2.8579    3.3000    0.0000 C   0  0  0  0  0  0  0  0  0  0  0  0
    2.1434    3.7125    0.0000 H   0  0  0  0  0  0  0  0  0  0  0  0
    3.5724    3.7125    0.0000 C   0  0  0  0  0  0  0  0  0  0  0  0
    3.5724    4.5375    0.0000 H   0  0  0  0  0  0  0  0  0  0  0  0
    4.2868    3.3000    0.0000 C   0  0  0  0  0  0  0  0  0  0  0  0
    5.0013    3.7125    0.0000 H   0  0  0  0  0  0  0  0  0  0  0  0
    4.2868    2.4750    0.0000 C   0  0  0  0  0  0  0  0  0  0  0  0
    5.0013    2.0625    0.0000 Cl  0  0  0  0  0  0  0  0  0  0  0  0
    3.5724    2.0625    0.0000 C   0  0  0  0  0  0  0  0  0  0  0  0
    3.5724    1.2375    0.0000 H   0  0  0  0  0  0  0  0  0  0  0  0
    1.6901    2.7518    0.0000 H   0  0  0  0  0  0  0  0  0  0  0  0
    1.3198    2.1105    0.0000 H   0  0  0  0  0  0  0  0  0  0  0  0
    0.7145    1.2375    0.0000 H   0  0  0  0  0  0  0  0  0  0  0  0
    2.1434   -0.4125    0.0000 C   0  0  0  0  0  0  0  0  0  0  0  0
    2.8579    0.0000    0.0000 C   0  0  0  0  0  0  0  0  0  0  0  0
    3.5724   -0.4125    0.0000 C   0  0  0  0  0  0  0  0  0  0  0  0
    3.5724   -1.2375    0.0000 C   0  0  0  0  0  0  0  0  0  0  0  0
    2.8579   -1.6500    0.0000 C   0  0  0  0  0  0  0  0  0  0  0  0
    2.8579   -2.4750    0.0000 H   0  0  0  0  0  0  0  0  0  0  0  0
    2.1434   -1.2375    0.0000 C   0  0  0  0  0  0  0  0  0  0  0  0
    4.2868   -1.6500    0.0000 H   0  0  0  0  0  0  0  0  0  0  0  0
    4.2868   -0.0000    0.0000 H   0  0  0  0  0  0  0  0  0  0  0  0
    2.1434    0.4125    0.0000 H   0  0  0  0  0  0  0  0  0  0  0  0
  1  2  3  0  0  0  0
  2  3  1  0  0  0  0
  3  4  2  0  0  0  0
  4  5  1  0  0  0  0
  5  6  1  0  0  0  0
  5  7  2  0  0  0  0
  7  8  1  0  0  0  0
  8  9  1  0  0  0  0
  9 10  2  0  0  0  0
  9 11  1  0  0  0  0
 11 12  1  0  0  0  0
 12 13  2  0  0  0  0
 13 14  1  0  0  0  0
 13 15  1  0  0  0  0
 15 16  1  0  0  0  0
 15 17  2  0  0  0  0
 17 18  1  0  0  0  0
 17 19  1  0  0  0  0
 19 20  1  0  0  0  0
 19 21  2  0  0  0  0
 12 21  1  0  0  0  0
 21 22  1  0  0  0  0
 11 23  1  0  0  0  0
 11 24  1  0  0  0  0
  8 25  1  0  0  0  0
  7 26  1  0  0  0  0
 26 27  2  0  0  0  0
 27 28  1  0  0  0  0
 28 29  2  0  0  0  0
 29 30  1  0  0  0  0
 30 31  1  0  0  0  0
 30 32  2  0  0  0  0
  3 32  1  0  0  0  0
 26 32  1  0  0  0  0
 29 33  1  0  0  0  0
 28 34  1  0  0  0  0
 27 35  1  0  0  0  0
M  END
> <Potency>
65.9490931686178

> <pIC50>
4.1807911718321416

> <Outcome>
Inactive

> <is_active>
0

$$$$

  Mrv1921 08232120312D          

 63 66  0  0  0  0            999 V2000
   -2.4304    1.4228    0.0000 C   0  0  0  0  0  0  0  0  0  0  0  0
   -1.8903    0.7991    0.0000 C   0  0  0  0  0  0  0  0  0  0  0  0
   -2.5140    0.2590    0.0000 C   0  0  0  0  0  0  0  0  0  0  0  0
   -3.2968   -0.0013    0.0000 H   0  0  0  0  0  0  0  0  0  0  0  0
   -2.5730   -0.5639    0.0000 H   0  0  0  0  0  0  0  0  0  0  0  0
   -1.7763   -0.1105    0.0000 H   0  0  0  0  0  0  0  0  0  0  0  0
   -1.2667    1.3392    0.0000 C   0  0  0  0  0  0  0  0  0  0  0  0
   -1.0064    0.5564    0.0000 H   0  0  0  0  0  0  0  0  0  0  0  0
   -0.4438    1.2801    0.0000 H   0  0  0  0  0  0  0  0  0  0  0  0
   -0.8972    2.0768    0.0000 H   0  0  0  0  0  0  0  0  0  0  0  0
   -1.3502    0.1755    0.0000 C   0  0  0  0  0  0  0  0  0  0  0  0
   -0.5401    0.3314    0.0000 C   0  0  0  0  0  0  0  0  0  0  0  0
    0.2465    0.5801    0.0000 H   0  0  0  0  0  0  0  0  0  0  0  0
    0.0000   -0.2923    0.0000 C   0  0  0  0  0  0  0  0  0  0  0  0
    0.5401   -0.9159    0.0000 H   0  0  0  0  0  0  0  0  0  0  0  0
   -0.2700   -1.0718    0.0000 C   0  0  0  0  0  0  0  0  0  0  0  0
    0.2700   -1.6954    0.0000 N   0  0  0  0  0  0  0  0  0  0  0  0
    0.0000   -2.4750    0.0000 C   0  0  0  0  0  0  0  0  0  0  0  0
    0.5401   -3.0986    0.0000 O   0  0  0  0  0  0  0  0  0  0  0  0
   -0.8101   -2.6309    0.0000 C   0  0  0  0  0  0  0  0  0  0  0  0
   -1.1602   -3.3780    0.0000 C   0  0  0  0  0  0  0  0  0  0  0  0
   -0.7616   -4.1003    0.0000 H   0  0  0  0  0  0  0  0  0  0  0  0
   -1.9788   -3.2759    0.0000 O   0  0  0  0  0  0  0  0  0  0  0  0
   -2.1348   -2.4658    0.0000 C   0  0  0  0  0  0  0  0  0  0  0  0
   -2.8818   -2.1157    0.0000 H   0  0  0  0  0  0  0  0  0  0  0  0
   -1.4125   -2.0671    0.0000 N   0  0  0  0  0  0  0  0  0  0  0  0
    1.0802   -1.5395    0.0000 C   0  0  0  0  0  0  0  0  0  0  0  0
    1.6203   -2.1632    0.0000 C   0  0  0  0  0  0  0  0  0  0  0  0
    1.3502   -2.9427    0.0000 O   0  0  0  0  0  0  0  0  0  0  0  0
    2.4304   -2.0073    0.0000 N   0  0  0  0  0  0  0  0  0  0  0  0
    2.9705   -2.6309    0.0000 C   0  0  0  0  0  0  0  0  0  0  0  0
    3.7806   -2.4750    0.0000 C   0  0  0  0  0  0  0  0  0  0  0  0
    4.3207   -3.0986    0.0000 C   0  0  0  0  0  0  0  0  0  0  0  0
    5.1427   -3.0283    0.0000 C   0  0  0  0  0  0  0  0  0  0  0  0
    5.5689   -2.3219    0.0000 H   0  0  0  0  0  0  0  0  0  0  0  0
    5.4636   -3.7883    0.0000 N   0  0  0  0  0  0  0  0  0  0  0  0
    6.2672   -3.9754    0.0000 H   0  0  0  0  0  0  0  0  0  0  0  0
    4.8400   -4.3284    0.0000 C   0  0  0  0  0  0  0  0  0  0  0  0
    4.9104   -5.1504    0.0000 H   0  0  0  0  0  0  0  0  0  0  0  0
    4.1336   -3.9021    0.0000 N   0  0  0  0  0  0  0  0  0  0  0  0
    4.3718   -1.8996    0.0000 H   0  0  0  0  0  0  0  0  0  0  0  0
    3.6721   -1.6572    0.0000 H   0  0  0  0  0  0  0  0  0  0  0  0
    2.3793   -3.2063    0.0000 H   0  0  0  0  0  0  0  0  0  0  0  0
    3.0790   -3.4487    0.0000 H   0  0  0  0  0  0  0  0  0  0  0  0
    2.7004   -1.2277    0.0000 H   0  0  0  0  0  0  0  0  0  0  0  0
    1.3502   -0.7600    0.0000 C   0  0  0  0  0  0  0  0  0  0  0  0
    0.8101   -0.1363    0.0000 C   0  0  0  0  0  0  0  0  0  0  0  0
    1.6203    0.0196    0.0000 H   0  0  0  0  0  0  0  0  0  0  0  0
    1.0802    0.6432    0.0000 C   0  0  0  0  0  0  0  0  0  0  0  0
    0.9709    1.4609    0.0000 H   0  0  0  0  0  0  0  0  0  0  0  0
    1.8903    0.7991    0.0000 C   0  0  0  0  0  0  0  0  0  0  0  0
    2.1604    1.5787    0.0000 H   0  0  0  0  0  0  0  0  0  0  0  0
    2.4304    0.1755    0.0000 N   0  0  0  0  0  0  0  0  0  0  0  0
    2.1604   -0.6041    0.0000 C   0  0  0  0  0  0  0  0  0  0  0  0
    1.8903   -1.3836    0.0000 H   0  0  0  0  0  0  0  0  0  0  0  0
    0.8101   -2.3191    0.0000 H   0  0  0  0  0  0  0  0  0  0  0  0
   -1.0802   -1.2277    0.0000 C   0  0  0  0  0  0  0  0  0  0  0  0
   -1.8935   -1.3660    0.0000 H   0  0  0  0  0  0  0  0  0  0  0  0
   -1.6203   -0.6041    0.0000 C   0  0  0  0  0  0  0  0  0  0  0  0
   -0.8101   -0.4482    0.0000 H   0  0  0  0  0  0  0  0  0  0  0  0
   -1.8068    1.9628    0.0000 H   0  0  0  0  0  0  0  0  0  0  0  0
   -2.9705    2.0464    0.0000 H   0  0  0  0  0  0  0  0  0  0  0  0
   -3.0540    0.8827    0.0000 H   0  0  0  0  0  0  0  0  0  0  0  0
  1  2  1  0  0  0  0
  2  3  1  0  0  0  0
  3  4  1  0  0  0  0
  3  5  1  0  0  0  0
  3  6  1  0  0  0  0
  2  7  1  0  0  0  0
  7  8  1  0  0  0  0
  7  9  1  0  0  0  0
  7 10  1  0  0  0  0
  2 11  1  0  0  0  0
 11 12  2  0  0  0  0
 12 13  1  0  0  0  0
 12 14  1  0  0  0  0
 14 15  1  0  0  0  0
 14 16  2  0  0  0  0
 16 17  1  0  0  0  0
 17 18  1  0  0  0  0
 18 19  2  0  0  0  0
 18 20  1  0  0  0  0
 20 21  2  0  0  0  0
 21 22  1  0  0  0  0
 21 23  1  0  0  0  0
 23 24  1  0  0  0  0
 24 25  1  0  0  0  0
 24 26  2  0  0  0  0
 20 26  1  0  0  0  0
 17 27  1  0  0  0  0
 27 28  1  0  0  0  0
 28 29  2  0  0  0  0
 28 30  1  0  0  0  0
 30 31  1  0  0  0  0
 31 32  1  0  0  0  0
 32 33  1  0  0  0  0
 33 34  2  0  0  0  0
 34 35  1  0  0  0  0
 34 36  1  0  0  0  0
 36 37  1  0  0  0  0
 36 38  1  0  0  0  0
 38 39  1  0  0  0  0
 38 40  2  0  0  0  0
 33 40  1  0  0  0  0
 32 41  1  0  0  0  0
 32 42  1  0  0  0  0
 31 43  1  0  0  0  0
 31 44  1  0  0  0  0
 30 45  1  0  0  0  0
 27 46  1  0  0  0  0
 46 47  2  0  0  0  0
 47 48  1  0  0  0  0
 47 49  1  0  0  0  0
 49 50  1  0  0  0  0
 49 51  2  0  0  0  0
 51 52  1  0  0  0  0
 51 53  1  0  0  0  0
 53 54  2  0  0  0  0
 46 54  1  0  0  0  0
 54 55  1  0  0  0  0
 27 56  1  0  0  0  0
 16 57  1  0  0  0  0
 57 58  1  0  0  0  0
 57 59  2  0  0  0  0
 11 59  1  0  0  0  0
 59 60  1  0  0  0  0
  1 61  1  0  0  0  0
  1 62  1  0  0  0  0
  1 63  1  0  0  0  0
M  END
> <Potency>
14.4523301984097

> <pIC50>
4.840062124483682

> <Outcome>
Inactive

> <is_active>
0

$$$$

  Mrv1921 08232120312D          

 66 69  0  0  0  0            999 V2000
   -2.4304    1.4228    0.0000 C   0  0  0  0  0  0  0  0  0  0  0  0
   -1.8903    0.7991    0.0000 C   0  0  0  0  0  0  0  0  0  0  0  0
   -2.5140    0.2590    0.0000 C   0  0  0  0  0  0  0  0  0  0  0  0
   -3.2968   -0.0013    0.0000 H   0  0  0  0  0  0  0  0  0  0  0  0
   -2.5730   -0.5639    0.0000 H   0  0  0  0  0  0  0  0  0  0  0  0
   -1.7763   -0.1105    0.0000 H   0  0  0  0  0  0  0  0  0  0  0  0
   -1.2667    1.3392    0.0000 C   0  0  0  0  0  0  0  0  0  0  0  0
   -1.0064    0.5564    0.0000 H   0  0  0  0  0  0  0  0  0  0  0  0
   -0.4438    1.2801    0.0000 H   0  0  0  0  0  0  0  0  0  0  0  0
   -0.8972    2.0768    0.0000 H   0  0  0  0  0  0  0  0  0  0  0  0
   -1.3502    0.1755    0.0000 C   0  0  0  0  0  0  0  0  0  0  0  0
   -0.5401    0.3314    0.0000 C   0  0  0  0  0  0  0  0  0  0  0  0
    0.2465    0.5801    0.0000 H   0  0  0  0  0  0  0  0  0  0  0  0
    0.0000   -0.2923    0.0000 C   0  0  0  0  0  0  0  0  0  0  0  0
    0.5401   -0.9159    0.0000 H   0  0  0  0  0  0  0  0  0  0  0  0
   -0.2700   -1.0718    0.0000 C   0  0  0  0  0  0  0  0  0  0  0  0
    0.2700   -1.6954    0.0000 N   0  0  0  0  0  0  0  0  0  0  0  0
    0.0000   -2.4750    0.0000 C   0  0  0  0  0  0  0  0  0  0  0  0
    0.5401   -3.0986    0.0000 O   0  0  0  0  0  0  0  0  0  0  0  0
   -0.8101   -2.6309    0.0000 C   0  0  0  0  0  0  0  0  0  0  0  0
   -1.1602   -3.3780    0.0000 C   0  0  0  0  0  0  0  0  0  0  0  0
   -0.7616   -4.1003    0.0000 H   0  0  0  0  0  0  0  0  0  0  0  0
   -1.9788   -3.2759    0.0000 C   0  0  0  0  0  0  0  0  0  0  0  0
   -2.5426   -3.8782    0.0000 H   0  0  0  0  0  0  0  0  0  0  0  0
   -2.1348   -2.4658    0.0000 N   0  0  0  0  0  0  0  0  0  0  0  0
   -1.4125   -2.0671    0.0000 S   0  0  0  0  0  0  0  0  0  0  0  0
    1.0802   -1.5395    0.0000 C   0  0  0  0  0  0  0  0  0  0  0  0
    1.6203   -2.1632    0.0000 C   0  0  0  0  0  0  0  0  0  0  0  0
    1.3502   -2.9427    0.0000 O   0  0  0  0  0  0  0  0  0  0  0  0
    2.4304   -2.0073    0.0000 N   0  0  0  0  0  0  0  0  0  0  0  0
    2.9705   -2.6309    0.0000 C   0  0  0  0  0  0  0  0  0  0  0  0
    3.7806   -2.4750    0.0000 C   0  0  0  0  0  0  0  0  0  0  0  0
    4.3207   -3.0986    0.0000 C   0  0  0  0  0  0  0  0  0  0  0  0
    5.1308   -2.9427    0.0000 C   0  0  0  0  0  0  0  0  0  0  0  0
    5.4009   -2.1632    0.0000 H   0  0  0  0  0  0  0  0  0  0  0  0
    5.6709   -3.5664    0.0000 C   0  0  0  0  0  0  0  0  0  0  0  0
    6.4811   -3.4105    0.0000 H   0  0  0  0  0  0  0  0  0  0  0  0
    5.4009   -4.3459    0.0000 C   0  0  0  0  0  0  0  0  0  0  0  0
    5.9410   -4.9696    0.0000 H   0  0  0  0  0  0  0  0  0  0  0  0
    4.5908   -4.5018    0.0000 C   0  0  0  0  0  0  0  0  0  0  0  0
    4.3207   -5.2814    0.0000 F   0  0  0  0  0  0  0  0  0  0  0  0
    4.0507   -3.8782    0.0000 C   0  0  0  0  0  0  0  0  0  0  0  0
    3.2405   -4.0341    0.0000 H   0  0  0  0  0  0  0  0  0  0  0  0
    4.3718   -1.8996    0.0000 H   0  0  0  0  0  0  0  0  0  0  0  0
    3.6721   -1.6572    0.0000 H   0  0  0  0  0  0  0  0  0  0  0  0
    2.3793   -3.2063    0.0000 H   0  0  0  0  0  0  0  0  0  0  0  0
    3.0790   -3.4487    0.0000 H   0  0  0  0  0  0  0  0  0  0  0  0
    2.7004   -1.2277    0.0000 H   0  0  0  0  0  0  0  0  0  0  0  0
    1.3502   -0.7600    0.0000 C   0  0  0  0  0  0  0  0  0  0  0  0
    0.8101   -0.1363    0.0000 C   0  0  0  0  0  0  0  0  0  0  0  0
    1.6203    0.0196    0.0000 H   0  0  0  0  0  0  0  0  0  0  0  0
    1.0802    0.6432    0.0000 C   0  0  0  0  0  0  0  0  0  0  0  0
    0.9709    1.4609    0.0000 H   0  0  0  0  0  0  0  0  0  0  0  0
    1.8903    0.7991    0.0000 C   0  0  0  0  0  0  0  0  0  0  0  0
    2.1604    1.5787    0.0000 H   0  0  0  0  0  0  0  0  0  0  0  0
    2.4304    0.1755    0.0000 N   0  0  0  0  0  0  0  0  0  0  0  0
    2.1604   -0.6041    0.0000 C   0  0  0  0  0  0  0  0  0  0  0  0
    1.8903   -1.3836    0.0000 H   0  0  0  0  0  0  0  0  0  0  0  0
    0.8101   -2.3191    0.0000 H   0  0  0  0  0  0  0  0  0  0  0  0
   -1.0802   -1.2277    0.0000 C   0  0  0  0  0  0  0  0  0  0  0  0
   -1.8935   -1.3660    0.0000 H   0  0  0  0  0  0  0  0  0  0  0  0
   -1.6203   -0.6041    0.0000 C   0  0  0  0  0  0  0  0  0  0  0  0
   -0.8101   -0.4482    0.0000 H   0  0  0  0  0  0  0  0  0  0  0  0
   -1.8068    1.9628    0.0000 H   0  0  0  0  0  0  0  0  0  0  0  0
   -2.9705    2.0464    0.0000 H   0  0  0  0  0  0  0  0  0  0  0  0
   -3.0540    0.8827    0.0000 H   0  0  0  0  0  0  0  0  0  0  0  0
  1  2  1  0  0  0  0
  2  3  1  0  0  0  0
  3  4  1  0  0  0  0
  3  5  1  0  0  0  0
  3  6  1  0  0  0  0
  2  7  1  0  0  0  0
  7  8  1  0  0  0  0
  7  9  1  0  0  0  0
  7 10  1  0  0  0  0
  2 11  1  0  0  0  0
 11 12  2  0  0  0  0
 12 13  1  0  0  0  0
 12 14  1  0  0  0  0
 14 15  1  0  0  0  0
 14 16  2  0  0  0  0
 16 17  1  0  0  0  0
 17 18  1  0  0  0  0
 18 19  2  0  0  0  0
 18 20  1  0  0  0  0
 20 21  2  0  0  0  0
 21 22  1  0  0  0  0
 21 23  1  0  0  0  0
 23 24  1  0  0  0  0
 23 25  2  0  0  0  0
 25 26  1  0  0  0  0
 20 26  1  0  0  0  0
 17 27  1  0  0  0  0
 27 28  1  0  0  0  0
 28 29  2  0  0  0  0
 28 30  1  0  0  0  0
 30 31  1  0  0  0  0
 31 32  1  0  0  0  0
 32 33  1  0  0  0  0
 33 34  2  0  0  0  0
 34 35  1  0  0  0  0
 34 36  1  0  0  0  0
 36 37  1  0  0  0  0
 36 38  2  0  0  0  0
 38 39  1  0  0  0  0
 38 40  1  0  0  0  0
 40 41  1  0  0  0  0
 40 42  2  0  0  0  0
 33 42  1  0  0  0  0
 42 43  1  0  0  0  0
 32 44  1  0  0  0  0
 32 45  1  0  0  0  0
 31 46  1  0  0  0  0
 31 47  1  0  0  0  0
 30 48  1  0  0  0  0
 27 49  1  0  0  0  0
 49 50  2  0  0  0  0
 50 51  1  0  0  0  0
 50 52  1  0  0  0  0
 52 53  1  0  0  0  0
 52 54  2  0  0  0  0
 54 55  1  0  0  0  0
 54 56  1  0  0  0  0
 56 57  2  0  0  0  0
 49 57  1  0  0  0  0
 57 58  1  0  0  0  0
 27 59  1  0  0  0  0
 16 60  1  0  0  0  0
 60 61  1  0  0  0  0
 60 62  2  0  0  0  0
 11 62  1  0  0  0  0
 62 63  1  0  0  0  0
  1 64  1  0  0  0  0
  1 65  1  0  0  0  0
  1 66  1  0  0  0  0
M  END
> <Potency>
51.0900009516602

> <pIC50>
4.2916640892280755

> <Outcome>
Inactive

> <is_active>
0

$$$$

  Mrv1921 08232120312D          

 63 67  0  0  0  0            999 V2000
   -3.1385    0.0224    0.0000 C   0  0  0  0  0  0  0  0  0  0  0  0
   -2.7123    0.7287    0.0000 C   0  0  0  0  0  0  0  0  0  0  0  0
   -3.0332    1.4888    0.0000 C   0  0  0  0  0  0  0  0  0  0  0  0
   -3.8368    1.6758    0.0000 H   0  0  0  0  0  0  0  0  0  0  0  0
   -2.4096    2.0288    0.0000 N   0  0  0  0  0  0  0  0  0  0  0  0
   -1.7032    1.6026    0.0000 N   0  0  0  0  0  0  0  0  0  0  0  0
   -1.8903    0.7991    0.0000 N   0  0  0  0  0  0  0  0  0  0  0  0
   -1.3502    0.1755    0.0000 C   0  0  0  0  0  0  0  0  0  0  0  0
   -0.5401    0.3314    0.0000 C   0  0  0  0  0  0  0  0  0  0  0  0
   -0.2700    1.1109    0.0000 H   0  0  0  0  0  0  0  0  0  0  0  0
    0.0000   -0.2923    0.0000 C   0  0  0  0  0  0  0  0  0  0  0  0
    0.5401   -0.9159    0.0000 H   0  0  0  0  0  0  0  0  0  0  0  0
   -0.2700   -1.0718    0.0000 C   0  0  0  0  0  0  0  0  0  0  0  0
    0.2700   -1.6954    0.0000 N   0  0  0  0  0  0  0  0  0  0  0  0
    0.0000   -2.4750    0.0000 C   0  0  0  0  0  0  0  0  0  0  0  0
    0.5401   -3.0986    0.0000 O   0  0  0  0  0  0  0  0  0  0  0  0
   -0.8101   -2.6309    0.0000 C   0  0  0  0  0  0  0  0  0  0  0  0
   -1.1602   -3.3780    0.0000 C   0  0  0  0  0  0  0  0  0  0  0  0
   -0.7616   -4.1003    0.0000 H   0  0  0  0  0  0  0  0  0  0  0  0
   -1.9788   -3.2759    0.0000 O   0  0  0  0  0  0  0  0  0  0  0  0
   -2.1348   -2.4658    0.0000 C   0  0  0  0  0  0  0  0  0  0  0  0
   -2.8818   -2.1157    0.0000 H   0  0  0  0  0  0  0  0  0  0  0  0
   -1.4125   -2.0671    0.0000 N   0  0  0  0  0  0  0  0  0  0  0  0
    1.0802   -1.5395    0.0000 C   0  0  0  0  0  0  0  0  0  0  0  0
    1.6203   -2.1632    0.0000 C   0  0  0  0  0  0  0  0  0  0  0  0
    1.3502   -2.9427    0.0000 O   0  0  0  0  0  0  0  0  0  0  0  0
    2.4304   -2.0073    0.0000 N   0  0  0  0  0  0  0  0  0  0  0  0
    2.9705   -2.6309    0.0000 C   0  0  0  0  0  0  0  0  0  0  0  0
    3.7806   -2.4750    0.0000 C   0  0  0  0  0  0  0  0  0  0  0  0
    4.3207   -3.0986    0.0000 C   0  0  0  0  0  0  0  0  0  0  0  0
    5.1308   -2.9427    0.0000 C   0  0  0  0  0  0  0  0  0  0  0  0
    5.4009   -2.1632    0.0000 H   0  0  0  0  0  0  0  0  0  0  0  0
    5.6709   -3.5664    0.0000 C   0  0  0  0  0  0  0  0  0  0  0  0
    6.4811   -3.4105    0.0000 H   0  0  0  0  0  0  0  0  0  0  0  0
    5.4009   -4.3459    0.0000 C   0  0  0  0  0  0  0  0  0  0  0  0
    5.9410   -4.9696    0.0000 H   0  0  0  0  0  0  0  0  0  0  0  0
    4.5908   -4.5018    0.0000 C   0  0  0  0  0  0  0  0  0  0  0  0
    4.3207   -5.2814    0.0000 F   0  0  0  0  0  0  0  0  0  0  0  0
    4.0507   -3.8782    0.0000 C   0  0  0  0  0  0  0  0  0  0  0  0
    3.2405   -4.0341    0.0000 H   0  0  0  0  0  0  0  0  0  0  0  0
    4.3718   -1.8996    0.0000 H   0  0  0  0  0  0  0  0  0  0  0  0
    3.6721   -1.6572    0.0000 H   0  0  0  0  0  0  0  0  0  0  0  0
    2.3793   -3.2063    0.0000 H   0  0  0  0  0  0  0  0  0  0  0  0
    3.0790   -3.4487    0.0000 H   0  0  0  0  0  0  0  0  0  0  0  0
    2.7004   -1.2277    0.0000 H   0  0  0  0  0  0  0  0  0  0  0  0
    1.3502   -0.7600    0.0000 C   0  0  0  0  0  0  0  0  0  0  0  0
    0.8101   -0.1363    0.0000 C   0  0  0  0  0  0  0  0  0  0  0  0
    0.2700    0.4873    0.0000 H   0  0  0  0  0  0  0  0  0  0  0  0
    1.0802    0.6432    0.0000 C   0  0  0  0  0  0  0  0  0  0  0  0
    0.9243    1.4533    0.0000 H   0  0  0  0  0  0  0  0  0  0  0  0
    1.8903    0.7991    0.0000 C   0  0  0  0  0  0  0  0  0  0  0  0
    2.1604    1.5787    0.0000 H   0  0  0  0  0  0  0  0  0  0  0  0
    2.4304    0.1755    0.0000 N   0  0  0  0  0  0  0  0  0  0  0  0
    2.1604   -0.6041    0.0000 C   0  0  0  0  0  0  0  0  0  0  0  0
    1.8903   -1.3836    0.0000 H   0  0  0  0  0  0  0  0  0  0  0  0
    0.8101   -2.3191    0.0000 H   0  0  0  0  0  0  0  0  0  0  0  0
   -1.0802   -1.2277    0.0000 C   0  0  0  0  0  0  0  0  0  0  0  0
   -1.8935   -1.3660    0.0000 H   0  0  0  0  0  0  0  0  0  0  0  0
   -1.6203   -0.6041    0.0000 C   0  0  0  0  0  0  0  0  0  0  0  0
   -0.8101   -0.4482    0.0000 H   0  0  0  0  0  0  0  0  0  0  0  0
   -3.8449    0.4486    0.0000 H   0  0  0  0  0  0  0  0  0  0  0  0
   -3.5647   -0.6840    0.0000 H   0  0  0  0  0  0  0  0  0  0  0  0
   -2.4322   -0.4038    0.0000 H   0  0  0  0  0  0  0  0  0  0  0  0
  1  2  1  0  0  0  0
  2  3  2  0  0  0  0
  3  4  1  0  0  0  0
  3  5  1  0  0  0  0
  5  6  2  0  0  0  0
  6  7  1  0  0  0  0
  2  7  1  0  0  0  0
  7  8  1  0  0  0  0
  8  9  2  0  0  0  0
  9 10  1  0  0  0  0
  9 11  1  0  0  0  0
 11 12  1  0  0  0  0
 11 13  2  0  0  0  0
 13 14  1  0  0  0  0
 14 15  1  0  0  0  0
 15 16  2  0  0  0  0
 15 17  1  0  0  0  0
 17 18  2  0  0  0  0
 18 19  1  0  0  0  0
 18 20  1  0  0  0  0
 20 21  1  0  0  0  0
 21 22  1  0  0  0  0
 21 23  2  0  0  0  0
 17 23  1  0  0  0  0
 14 24  1  0  0  0  0
 24 25  1  0  0  0  0
 25 26  2  0  0  0  0
 25 27  1  0  0  0  0
 27 28  1  0  0  0  0
 28 29  1  0  0  0  0
 29 30  1  0  0  0  0
 30 31  2  0  0  0  0
 31 32  1  0  0  0  0
 31 33  1  0  0  0  0
 33 34  1  0  0  0  0
 33 35  2  0  0  0  0
 35 36  1  0  0  0  0
 35 37  1  0  0  0  0
 37 38  1  0  0  0  0
 37 39  2  0  0  0  0
 30 39  1  0  0  0  0
 39 40  1  0  0  0  0
 29 41  1  0  0  0  0
 29 42  1  0  0  0  0
 28 43  1  0  0  0  0
 28 44  1  0  0  0  0
 27 45  1  0  0  0  0
 24 46  1  0  0  0  0
 46 47  2  0  0  0  0
 47 48  1  0  0  0  0
 47 49  1  0  0  0  0
 49 50  1  0  0  0  0
 49 51  2  0  0  0  0
 51 52  1  0  0  0  0
 51 53  1  0  0  0  0
 53 54  2  0  0  0  0
 46 54  1  0  0  0  0
 54 55  1  0  0  0  0
 24 56  1  0  0  0  0
 13 57  1  0  0  0  0
 57 58  1  0  0  0  0
 57 59  2  0  0  0  0
  8 59  1  0  0  0  0
 59 60  1  0  0  0  0
  1 61  1  0  0  0  0
  1 62  1  0  0  0  0
  1 63  1  0  0  0  0
M  END
> <Potency>
28.4188225697659

> <pIC50>
4.546393919443255

> <Outcome>
Inactive

> <is_active>
0

$$$$

  Mrv1921 08232120312D          

 70 73  0  0  0  0            999 V2000
   -2.4304    1.4228    0.0000 C   0  0  0  0  0  0  0  0  0  0  0  0
   -1.8903    0.7991    0.0000 C   0  0  0  0  0  0  0  0  0  0  0  0
   -2.5140    0.2590    0.0000 C   0  0  0  0  0  0  0  0  0  0  0  0
   -3.2968   -0.0013    0.0000 H   0  0  0  0  0  0  0  0  0  0  0  0
   -2.5730   -0.5639    0.0000 H   0  0  0  0  0  0  0  0  0  0  0  0
   -1.7763   -0.1105    0.0000 H   0  0  0  0  0  0  0  0  0  0  0  0
   -1.2667    1.3392    0.0000 C   0  0  0  0  0  0  0  0  0  0  0  0
   -1.0064    0.5564    0.0000 H   0  0  0  0  0  0  0  0  0  0  0  0
   -0.4438    1.2801    0.0000 H   0  0  0  0  0  0  0  0  0  0  0  0
   -0.8972    2.0768    0.0000 H   0  0  0  0  0  0  0  0  0  0  0  0
   -1.3502    0.1755    0.0000 C   0  0  0  0  0  0  0  0  0  0  0  0
   -0.5401    0.3314    0.0000 C   0  0  0  0  0  0  0  0  0  0  0  0
    0.2465    0.5801    0.0000 H   0  0  0  0  0  0  0  0  0  0  0  0
    0.0000   -0.2923    0.0000 C   0  0  0  0  0  0  0  0  0  0  0  0
    0.5401   -0.9159    0.0000 H   0  0  0  0  0  0  0  0  0  0  0  0
   -0.2700   -1.0718    0.0000 C   0  0  0  0  0  0  0  0  0  0  0  0
    0.2700   -1.6954    0.0000 N   0  0  0  0  0  0  0  0  0  0  0  0
    0.0000   -2.4750    0.0000 C   0  0  0  0  0  0  0  0  0  0  0  0
    0.5401   -3.0986    0.0000 O   0  0  0  0  0  0  0  0  0  0  0  0
   -0.8101   -2.6309    0.0000 C   0  0  0  0  0  0  0  0  0  0  0  0
   -1.0802   -3.4105    0.0000 C   0  0  0  0  0  0  0  0  0  0  0  0
   -0.5401   -4.0341    0.0000 H   0  0  0  0  0  0  0  0  0  0  0  0
   -1.8903   -3.5664    0.0000 C   0  0  0  0  0  0  0  0  0  0  0  0
   -2.1604   -4.3459    0.0000 H   0  0  0  0  0  0  0  0  0  0  0  0
   -2.4304   -2.9427    0.0000 C   0  0  0  0  0  0  0  0  0  0  0  0
   -3.2405   -3.0986    0.0000 O   0  0  0  0  0  0  0  0  0  0  0  0
   -3.7806   -2.4750    0.0000 H   0  0  0  0  0  0  0  0  0  0  0  0
   -2.1604   -2.1632    0.0000 C   0  0  0  0  0  0  0  0  0  0  0  0
   -2.7004   -1.5395    0.0000 O   0  0  0  0  0  0  0  0  0  0  0  0
   -1.3502   -2.0073    0.0000 O   0  0  0  0  0  0  0  0  0  0  0  0
    1.0802   -1.5395    0.0000 C   0  0  0  0  0  0  0  0  0  0  0  0
    1.6203   -2.1632    0.0000 C   0  0  0  0  0  0  0  0  0  0  0  0
    1.3502   -2.9427    0.0000 O   0  0  0  0  0  0  0  0  0  0  0  0
    2.4304   -2.0073    0.0000 N   0  0  0  0  0  0  0  0  0  0  0  0
    2.9705   -2.6309    0.0000 C   0  0  0  0  0  0  0  0  0  0  0  0
    3.7806   -2.4750    0.0000 C   0  0  0  0  0  0  0  0  0  0  0  0
    4.3207   -3.0986    0.0000 C   0  0  0  0  0  0  0  0  0  0  0  0
    5.1308   -2.9427    0.0000 C   0  0  0  0  0  0  0  0  0  0  0  0
    5.4009   -2.1632    0.0000 H   0  0  0  0  0  0  0  0  0  0  0  0
    5.6709   -3.5664    0.0000 C   0  0  0  0  0  0  0  0  0  0  0  0
    6.4811   -3.4105    0.0000 H   0  0  0  0  0  0  0  0  0  0  0  0
    5.4009   -4.3459    0.0000 C   0  0  0  0  0  0  0  0  0  0  0  0
    5.9410   -4.9696    0.0000 H   0  0  0  0  0  0  0  0  0  0  0  0
    4.5908   -4.5018    0.0000 C   0  0  0  0  0  0  0  0  0  0  0  0
    4.3207   -5.2814    0.0000 F   0  0  0  0  0  0  0  0  0  0  0  0
    4.0507   -3.8782    0.0000 C   0  0  0  0  0  0  0  0  0  0  0  0
    3.2405   -4.0341    0.0000 H   0  0  0  0  0  0  0  0  0  0  0  0
    4.3718   -1.8996    0.0000 H   0  0  0  0  0  0  0  0  0  0  0  0
    3.6721   -1.6572    0.0000 H   0  0  0  0  0  0  0  0  0  0  0  0
    2.3793   -3.2063    0.0000 H   0  0  0  0  0  0  0  0  0  0  0  0
    3.0790   -3.4487    0.0000 H   0  0  0  0  0  0  0  0  0  0  0  0
    2.7004   -1.2277    0.0000 H   0  0  0  0  0  0  0  0  0  0  0  0
    1.3502   -0.7600    0.0000 C   0  0  0  0  0  0  0  0  0  0  0  0
    0.8101   -0.1363    0.0000 C   0  0  0  0  0  0  0  0  0  0  0  0
    1.6203    0.0196    0.0000 H   0  0  0  0  0  0  0  0  0  0  0  0
    1.0802    0.6432    0.0000 C   0  0  0  0  0  0  0  0  0  0  0  0
    0.9709    1.4609    0.0000 H   0  0  0  0  0  0  0  0  0  0  0  0
    1.8903    0.7991    0.0000 C   0  0  0  0  0  0  0  0  0  0  0  0
    2.1604    1.5787    0.0000 H   0  0  0  0  0  0  0  0  0  0  0  0
    2.4304    0.1755    0.0000 N   0  0  0  0  0  0  0  0  0  0  0  0
    2.1604   -0.6041    0.0000 C   0  0  0  0  0  0  0  0  0  0  0  0
    1.8903   -1.3836    0.0000 H   0  0  0  0  0  0  0  0  0  0  0  0
    0.8101   -2.3191    0.0000 H   0  0  0  0  0  0  0  0  0  0  0  0
   -1.0802   -1.2277    0.0000 C   0  0  0  0  0  0  0  0  0  0  0  0
   -1.8903   -1.3836    0.0000 H   0  0  0  0  0  0  0  0  0  0  0  0
   -1.6203   -0.6041    0.0000 C   0  0  0  0  0  0  0  0  0  0  0  0
   -0.8101   -0.4482    0.0000 H   0  0  0  0  0  0  0  0  0  0  0  0
   -1.8068    1.9628    0.0000 H   0  0  0  0  0  0  0  0  0  0  0  0
   -2.9705    2.0464    0.0000 H   0  0  0  0  0  0  0  0  0  0  0  0
   -3.0540    0.8827    0.0000 H   0  0  0  0  0  0  0  0  0  0  0  0
  1  2  1  0  0  0  0
  2  3  1  0  0  0  0
  3  4  1  0  0  0  0
  3  5  1  0  0  0  0
  3  6  1  0  0  0  0
  2  7  1  0  0  0  0
  7  8  1  0  0  0  0
  7  9  1  0  0  0  0
  7 10  1  0  0  0  0
  2 11  1  0  0  0  0
 11 12  2  0  0  0  0
 12 13  1  0  0  0  0
 12 14  1  0  0  0  0
 14 15  1  0  0  0  0
 14 16  2  0  0  0  0
 16 17  1  0  0  0  0
 17 18  1  0  0  0  0
 18 19  2  0  0  0  0
 18 20  1  0  0  0  0
 20 21  4  0  0  0  0
 21 22  1  0  0  0  0
 21 23  4  0  0  0  0
 23 24  1  0  0  0  0
 23 25  4  0  0  0  0
 25 26  1  0  0  0  0
 26 27  1  0  0  0  0
 25 28  4  0  0  0  0
 28 29  2  0  0  0  0
 28 30  4  0  0  0  0
 20 30  4  0  0  0  0
 17 31  1  0  0  0  0
 31 32  1  0  0  0  0
 32 33  2  0  0  0  0
 32 34  1  0  0  0  0
 34 35  1  0  0  0  0
 35 36  1  0  0  0  0
 36 37  1  0  0  0  0
 37 38  2  0  0  0  0
 38 39  1  0  0  0  0
 38 40  1  0  0  0  0
 40 41  1  0  0  0  0
 40 42  2  0  0  0  0
 42 43  1  0  0  0  0
 42 44  1  0  0  0  0
 44 45  1  0  0  0  0
 44 46  2  0  0  0  0
 37 46  1  0  0  0  0
 46 47  1  0  0  0  0
 36 48  1  0  0  0  0
 36 49  1  0  0  0  0
 35 50  1  0  0  0  0
 35 51  1  0  0  0  0
 34 52  1  0  0  0  0
 31 53  1  0  0  0  0
 53 54  2  0  0  0  0
 54 55  1  0  0  0  0
 54 56  1  0  0  0  0
 56 57  1  0  0  0  0
 56 58  2  0  0  0  0
 58 59  1  0  0  0  0
 58 60  1  0  0  0  0
 60 61  2  0  0  0  0
 53 61  1  0  0  0  0
 61 62  1  0  0  0  0
 31 63  1  0  0  0  0
 16 64  1  0  0  0  0
 64 65  1  0  0  0  0
 64 66  2  0  0  0  0
 11 66  1  0  0  0  0
 66 67  1  0  0  0  0
  1 68  1  0  0  0  0
  1 69  1  0  0  0  0
  1 70  1  0  0  0  0
M  END
> <Potency>
76.4583333075356

> <pIC50>
4.116575173270032

> <Outcome>
Inactive

> <is_active>
0

$$$$

  Mrv1921 08232120312D          

 65 69  0  0  0  0            999 V2000
    5.2883   -3.6573    0.0000 O   0  0  0  0  0  0  0  0  0  0  0  0
    5.0182   -4.4368    0.0000 C   0  0  0  0  0  0  0  0  0  0  0  0
    4.2081   -4.5927    0.0000 N   0  0  0  0  0  0  0  0  0  0  0  0
    3.6680   -3.9691    0.0000 C   0  0  0  0  0  0  0  0  0  0  0  0
    2.8579   -4.1250    0.0000 C   0  0  0  0  0  0  0  0  0  0  0  0
    2.3178   -3.5014    0.0000 C   0  0  0  0  0  0  0  0  0  0  0  0
    1.5077   -3.6573    0.0000 C   0  0  0  0  0  0  0  0  0  0  0  0
    1.2376   -4.4368    0.0000 H   0  0  0  0  0  0  0  0  0  0  0  0
    0.9676   -3.0336    0.0000 C   0  0  0  0  0  0  0  0  0  0  0  0
    0.1574   -3.1895    0.0000 H   0  0  0  0  0  0  0  0  0  0  0  0
    1.2376   -2.2541    0.0000 C   0  0  0  0  0  0  0  0  0  0  0  0
    0.6975   -1.6304    0.0000 H   0  0  0  0  0  0  0  0  0  0  0  0
    2.0477   -2.0982    0.0000 C   0  0  0  0  0  0  0  0  0  0  0  0
    2.3178   -1.3186    0.0000 F   0  0  0  0  0  0  0  0  0  0  0  0
    2.5878   -2.7218    0.0000 C   0  0  0  0  0  0  0  0  0  0  0  0
    3.3980   -2.5659    0.0000 H   0  0  0  0  0  0  0  0  0  0  0  0
    2.2667   -4.7004    0.0000 H   0  0  0  0  0  0  0  0  0  0  0  0
    2.9664   -4.9428    0.0000 H   0  0  0  0  0  0  0  0  0  0  0  0
    4.2592   -3.3937    0.0000 H   0  0  0  0  0  0  0  0  0  0  0  0
    3.5595   -3.1513    0.0000 H   0  0  0  0  0  0  0  0  0  0  0  0
    3.9381   -5.3723    0.0000 H   0  0  0  0  0  0  0  0  0  0  0  0
    5.5583   -5.0605    0.0000 C   0  0  0  0  0  0  0  0  0  0  0  0
    5.2883   -5.8400    0.0000 C   0  0  0  0  0  0  0  0  0  0  0  0
    5.8284   -6.4637    0.0000 C   0  0  0  0  0  0  0  0  0  0  0  0
    6.0984   -5.6841    0.0000 H   0  0  0  0  0  0  0  0  0  0  0  0
    5.5583   -7.2432    0.0000 C   0  0  0  0  0  0  0  0  0  0  0  0
    6.0984   -7.8668    0.0000 H   0  0  0  0  0  0  0  0  0  0  0  0
    4.7482   -7.3991    0.0000 C   0  0  0  0  0  0  0  0  0  0  0  0
    4.4782   -8.1787    0.0000 H   0  0  0  0  0  0  0  0  0  0  0  0
    4.2081   -6.7755    0.0000 N   0  0  0  0  0  0  0  0  0  0  0  0
    4.4782   -5.9959    0.0000 C   0  0  0  0  0  0  0  0  0  0  0  0
    3.6680   -6.1518    0.0000 H   0  0  0  0  0  0  0  0  0  0  0  0
    6.3685   -4.9046    0.0000 N   0  0  0  0  0  0  0  0  0  0  0  0
    6.6385   -4.1250    0.0000 C   0  0  0  0  0  0  0  0  0  0  0  0
    6.0984   -3.5014    0.0000 O   0  0  0  0  0  0  0  0  0  0  0  0
    7.4486   -3.9691    0.0000 C   0  0  0  0  0  0  0  0  0  0  0  0
    7.7987   -3.2220    0.0000 C   0  0  0  0  0  0  0  0  0  0  0  0
    7.4001   -2.4997    0.0000 H   0  0  0  0  0  0  0  0  0  0  0  0
    8.6174   -3.3241    0.0000 O   0  0  0  0  0  0  0  0  0  0  0  0
    8.7733   -4.1342    0.0000 C   0  0  0  0  0  0  0  0  0  0  0  0
    9.5203   -4.4843    0.0000 H   0  0  0  0  0  0  0  0  0  0  0  0
    8.0510   -4.5329    0.0000 N   0  0  0  0  0  0  0  0  0  0  0  0
    6.9086   -5.5282    0.0000 C   0  0  0  0  0  0  0  0  0  0  0  0
    7.7187   -5.3723    0.0000 C   0  0  0  0  0  0  0  0  0  0  0  0
    7.1923   -4.7371    0.0000 H   0  0  0  0  0  0  0  0  0  0  0  0
    8.2588   -5.9959    0.0000 C   0  0  0  0  0  0  0  0  0  0  0  0
    9.0689   -5.8400    0.0000 H   0  0  0  0  0  0  0  0  0  0  0  0
    7.9887   -6.7755    0.0000 C   0  0  0  0  0  0  0  0  0  0  0  0
    8.5288   -7.3991    0.0000 N   0  0  0  0  0  0  0  0  0  0  0  0
    9.3508   -7.3287    0.0000 C   0  0  0  0  0  0  0  0  0  0  0  0
   10.0588   -6.9052    0.0000 H   0  0  0  0  0  0  0  0  0  0  0  0
    9.3955   -6.5050    0.0000 H   0  0  0  0  0  0  0  0  0  0  0  0
    9.6718   -8.0888    0.0000 C   0  0  0  0  0  0  0  0  0  0  0  0
   10.2934   -8.6312    0.0000 H   0  0  0  0  0  0  0  0  0  0  0  0
   10.4690   -7.8767    0.0000 H   0  0  0  0  0  0  0  0  0  0  0  0
    9.0481   -8.6288    0.0000 C   0  0  0  0  0  0  0  0  0  0  0  0
    8.7243   -9.3877    0.0000 H   0  0  0  0  0  0  0  0  0  0  0  0
    9.4962   -9.3216    0.0000 H   0  0  0  0  0  0  0  0  0  0  0  0
    8.3417   -8.2026    0.0000 C   0  0  0  0  0  0  0  0  0  0  0  0
    7.5817   -8.5236    0.0000 O   0  0  0  0  0  0  0  0  0  0  0  0
    7.1786   -6.9314    0.0000 C   0  0  0  0  0  0  0  0  0  0  0  0
    6.9086   -7.7109    0.0000 H   0  0  0  0  0  0  0  0  0  0  0  0
    6.6385   -6.3077    0.0000 C   0  0  0  0  0  0  0  0  0  0  0  0
    7.4486   -6.1518    0.0000 H   0  0  0  0  0  0  0  0  0  0  0  0
    4.7482   -5.2164    0.0000 H   0  0  0  0  0  0  0  0  0  0  0  0
  1  2  2  0  0  0  0
  2  3  1  0  0  0  0
  3  4  1  0  0  0  0
  4  5  1  0  0  0  0
  5  6  1  0  0  0  0
  6  7  2  0  0  0  0
  7  8  1  0  0  0  0
  7  9  1  0  0  0  0
  9 10  1  0  0  0  0
  9 11  2  0  0  0  0
 11 12  1  0  0  0  0
 11 13  1  0  0  0  0
 13 14  1  0  0  0  0
 13 15  2  0  0  0  0
  6 15  1  0  0  0  0
 15 16  1  0  0  0  0
  5 17  1  0  0  0  0
  5 18  1  0  0  0  0
  4 19  1  0  0  0  0
  4 20  1  0  0  0  0
  3 21  1  0  0  0  0
  2 22  1  0  0  0  0
 22 23  1  0  0  0  0
 23 24  2  0  0  0  0
 24 25  1  0  0  0  0
 24 26  1  0  0  0  0
 26 27  1  0  0  0  0
 26 28  2  0  0  0  0
 28 29  1  0  0  0  0
 28 30  1  0  0  0  0
 30 31  2  0  0  0  0
 23 31  1  0  0  0  0
 31 32  1  0  0  0  0
 22 33  1  0  0  0  0
 33 34  1  0  0  0  0
 34 35  2  0  0  0  0
 34 36  1  0  0  0  0
 36 37  2  0  0  0  0
 37 38  1  0  0  0  0
 37 39  1  0  0  0  0
 39 40  1  0  0  0  0
 40 41  1  0  0  0  0
 40 42  2  0  0  0  0
 36 42  1  0  0  0  0
 33 43  1  0  0  0  0
 43 44  2  0  0  0  0
 44 45  1  0  0  0  0
 44 46  1  0  0  0  0
 46 47  1  0  0  0  0
 46 48  2  0  0  0  0
 48 49  1  0  0  0  0
 49 50  1  0  0  0  0
 50 51  1  0  0  0  0
 50 52  1  0  0  0  0
 50 53  1  0  0  0  0
 53 54  1  0  0  0  0
 53 55  1  0  0  0  0
 53 56  1  0  0  0  0
 56 57  1  0  0  0  0
 56 58  1  0  0  0  0
 56 59  1  0  0  0  0
 49 59  1  0  0  0  0
 59 60  2  0  0  0  0
 48 61  1  0  0  0  0
 61 62  1  0  0  0  0
 61 63  2  0  0  0  0
 43 63  1  0  0  0  0
 63 64  1  0  0  0  0
 22 65  1  0  0  0  0
M  END
> <Potency>
76.6101308203456

> <pIC50>
4.11571379605341

> <Outcome>
Inactive

> <is_active>
0

$$$$

  Mrv1921 08232120312D          

 75 78  0  0  0  0            999 V2000
    0.0000   -5.7750    0.0000 C   0  0  0  0  0  0  0  0  0  0  0  0
    0.0000   -4.9500    0.0000 C   0  0  0  0  0  0  0  0  0  0  0  0
    0.8250   -4.9500    0.0000 C   0  0  0  0  0  0  0  0  0  0  0  0
    1.5872   -5.2657    0.0000 H   0  0  0  0  0  0  0  0  0  0  0  0
    1.4084   -4.3666    0.0000 H   0  0  0  0  0  0  0  0  0  0  0  0
    0.5093   -4.1878    0.0000 H   0  0  0  0  0  0  0  0  0  0  0  0
   -0.8250   -4.9500    0.0000 C   0  0  0  0  0  0  0  0  0  0  0  0
   -0.5093   -4.1878    0.0000 H   0  0  0  0  0  0  0  0  0  0  0  0
   -1.4084   -4.3666    0.0000 H   0  0  0  0  0  0  0  0  0  0  0  0
   -1.5872   -5.2657    0.0000 H   0  0  0  0  0  0  0  0  0  0  0  0
    0.0000   -4.1250    0.0000 C   0  0  0  0  0  0  0  0  0  0  0  0
   -0.7145   -3.7125    0.0000 C   0  0  0  0  0  0  0  0  0  0  0  0
   -1.4719   -3.3856    0.0000 H   0  0  0  0  0  0  0  0  0  0  0  0
   -0.7145   -2.8875    0.0000 C   0  0  0  0  0  0  0  0  0  0  0  0
   -0.7324   -2.0627    0.0000 H   0  0  0  0  0  0  0  0  0  0  0  0
    0.0000   -2.4750    0.0000 C   0  0  0  0  0  0  0  0  0  0  0  0
    0.0000   -1.6500    0.0000 N   0  0  0  0  0  0  0  0  0  0  0  0
   -0.7145   -1.2375    0.0000 C   0  0  0  0  0  0  0  0  0  0  0  0
   -0.7145   -0.4125    0.0000 O   0  0  0  0  0  0  0  0  0  0  0  0
   -1.4289   -1.6500    0.0000 C   0  0  0  0  0  0  0  0  0  0  0  0
   -1.5152   -2.4705    0.0000 C   0  0  0  0  0  0  0  0  0  0  0  0
   -2.1283   -1.9184    0.0000 H   0  0  0  0  0  0  0  0  0  0  0  0
   -2.3221   -2.6420    0.0000 O   0  0  0  0  0  0  0  0  0  0  0  0
   -2.7346   -1.9275    0.0000 C   0  0  0  0  0  0  0  0  0  0  0  0
   -3.5551   -1.8413    0.0000 C   0  0  0  0  0  0  0  0  0  0  0  0
   -4.0401   -2.5087    0.0000 S   0  0  0  0  0  0  0  0  0  0  0  0
   -4.5250   -3.1762    0.0000 C   0  0  0  0  0  0  0  0  0  0  0  0
   -5.1924   -2.6913    0.0000 H   0  0  0  0  0  0  0  0  0  0  0  0
   -5.0099   -3.8436    0.0000 H   0  0  0  0  0  0  0  0  0  0  0  0
   -3.8575   -3.6611    0.0000 H   0  0  0  0  0  0  0  0  0  0  0  0
   -3.3726   -2.9937    0.0000 O   0  0  0  0  0  0  0  0  0  0  0  0
   -4.7075   -2.0238    0.0000 O   0  0  0  0  0  0  0  0  0  0  0  0
   -3.5167   -1.0172    0.0000 H   0  0  0  0  0  0  0  0  0  0  0  0
   -4.1932   -1.3184    0.0000 H   0  0  0  0  0  0  0  0  0  0  0  0
   -2.1826   -1.3144    0.0000 N   0  0  0  0  0  0  0  0  0  0  0  0
    0.7145   -1.2375    0.0000 C   0  0  0  0  0  0  0  0  0  0  0  0
    1.4289   -1.6500    0.0000 C   0  0  0  0  0  0  0  0  0  0  0  0
    1.4289   -2.4750    0.0000 O   0  0  0  0  0  0  0  0  0  0  0  0
    2.1434   -1.2375    0.0000 N   0  0  0  0  0  0  0  0  0  0  0  0
    2.8579   -1.6500    0.0000 C   0  0  0  0  0  0  0  0  0  0  0  0
    3.5724   -1.2375    0.0000 C   0  0  0  0  0  0  0  0  0  0  0  0
    4.2868   -1.6500    0.0000 C   0  0  0  0  0  0  0  0  0  0  0  0
    5.0013   -1.2375    0.0000 C   0  0  0  0  0  0  0  0  0  0  0  0
    5.0013   -0.4125    0.0000 H   0  0  0  0  0  0  0  0  0  0  0  0
    5.7158   -1.6500    0.0000 C   0  0  0  0  0  0  0  0  0  0  0  0
    6.4302   -1.2375    0.0000 H   0  0  0  0  0  0  0  0  0  0  0  0
    5.7158   -2.4750    0.0000 C   0  0  0  0  0  0  0  0  0  0  0  0
    6.4302   -2.8875    0.0000 H   0  0  0  0  0  0  0  0  0  0  0  0
    5.0013   -2.8875    0.0000 C   0  0  0  0  0  0  0  0  0  0  0  0
    5.0013   -3.7125    0.0000 F   0  0  0  0  0  0  0  0  0  0  0  0
    4.2868   -2.4750    0.0000 C   0  0  0  0  0  0  0  0  0  0  0  0
    3.5724   -2.8875    0.0000 H   0  0  0  0  0  0  0  0  0  0  0  0
    3.9426   -0.5003    0.0000 H   0  0  0  0  0  0  0  0  0  0  0  0
    3.2021   -0.5003    0.0000 H   0  0  0  0  0  0  0  0  0  0  0  0
    2.4876   -2.3872    0.0000 H   0  0  0  0  0  0  0  0  0  0  0  0
    3.2281   -2.3872    0.0000 H   0  0  0  0  0  0  0  0  0  0  0  0
    2.1434   -0.4125    0.0000 H   0  0  0  0  0  0  0  0  0  0  0  0
    0.7145   -0.4125    0.0000 C   0  0  0  0  0  0  0  0  0  0  0  0
    0.0000    0.0000    0.0000 C   0  0  0  0  0  0  0  0  0  0  0  0
    0.0000   -0.8250    0.0000 H   0  0  0  0  0  0  0  0  0  0  0  0
    0.0000    0.8250    0.0000 C   0  0  0  0  0  0  0  0  0  0  0  0
   -0.7145    1.2375    0.0000 H   0  0  0  0  0  0  0  0  0  0  0  0
    0.7145    1.2375    0.0000 C   0  0  0  0  0  0  0  0  0  0  0  0
    0.7145    2.0625    0.0000 H   0  0  0  0  0  0  0  0  0  0  0  0
    1.4289    0.8250    0.0000 N   0  0  0  0  0  0  0  0  0  0  0  0
    1.4289    0.0000    0.0000 C   0  0  0  0  0  0  0  0  0  0  0  0
    1.4289   -0.8250    0.0000 H   0  0  0  0  0  0  0  0  0  0  0  0
    0.7145   -2.0625    0.0000 H   0  0  0  0  0  0  0  0  0  0  0  0
    0.7145   -2.8875    0.0000 C   0  0  0  0  0  0  0  0  0  0  0  0
    1.4289   -3.3000    0.0000 H   0  0  0  0  0  0  0  0  0  0  0  0
    0.7145   -3.7125    0.0000 C   0  0  0  0  0  0  0  0  0  0  0  0
    0.0000   -3.3000    0.0000 H   0  0  0  0  0  0  0  0  0  0  0  0
   -0.8250   -5.7750    0.0000 H   0  0  0  0  0  0  0  0  0  0  0  0
    0.0000   -6.6000    0.0000 H   0  0  0  0  0  0  0  0  0  0  0  0
    0.8250   -5.7750    0.0000 H   0  0  0  0  0  0  0  0  0  0  0  0
  1  2  1  0  0  0  0
  2  3  1  0  0  0  0
  3  4  1  0  0  0  0
  3  5  1  0  0  0  0
  3  6  1  0  0  0  0
  2  7  1  0  0  0  0
  7  8  1  0  0  0  0
  7  9  1  0  0  0  0
  7 10  1  0  0  0  0
  2 11  1  0  0  0  0
 11 12  2  0  0  0  0
 12 13  1  0  0  0  0
 12 14  1  0  0  0  0
 14 15  1  0  0  0  0
 14 16  2  0  0  0  0
 16 17  1  0  0  0  0
 17 18  1  0  0  0  0
 18 19  2  0  0  0  0
 18 20  1  0  0  0  0
 20 21  2  0  0  0  0
 21 22  1  0  0  0  0
 21 23  1  0  0  0  0
 23 24  1  0  0  0  0
 24 25  1  0  0  0  0
 25 26  1  0  0  0  0
 26 27  1  0  0  0  0
 27 28  1  0  0  0  0
 27 29  1  0  0  0  0
 27 30  1  0  0  0  0
 26 31  2  0  0  0  0
 26 32  2  0  0  0  0
 25 33  1  0  0  0  0
 25 34  1  0  0  0  0
 24 35  2  0  0  0  0
 20 35  1  0  0  0  0
 17 36  1  0  0  0  0
 36 37  1  0  0  0  0
 37 38  2  0  0  0  0
 37 39  1  0  0  0  0
 39 40  1  0  0  0  0
 40 41  1  0  0  0  0
 41 42  1  0  0  0  0
 42 43  2  0  0  0  0
 43 44  1  0  0  0  0
 43 45  1  0  0  0  0
 45 46  1  0  0  0  0
 45 47  2  0  0  0  0
 47 48  1  0  0  0  0
 47 49  1  0  0  0  0
 49 50  1  0  0  0  0
 49 51  2  0  0  0  0
 42 51  1  0  0  0  0
 51 52  1  0  0  0  0
 41 53  1  0  0  0  0
 41 54  1  0  0  0  0
 40 55  1  0  0  0  0
 40 56  1  0  0  0  0
 39 57  1  0  0  0  0
 36 58  1  0  0  0  0
 58 59  2  0  0  0  0
 59 60  1  0  0  0  0
 59 61  1  0  0  0  0
 61 62  1  0  0  0  0
 61 63  2  0  0  0  0
 63 64  1  0  0  0  0
 63 65  1  0  0  0  0
 65 66  2  0  0  0  0
 58 66  1  0  0  0  0
 66 67  1  0  0  0  0
 36 68  1  0  0  0  0
 16 69  1  0  0  0  0
 69 70  1  0  0  0  0
 69 71  2  0  0  0  0
 11 71  1  0  0  0  0
 71 72  1  0  0  0  0
  1 73  1  0  0  0  0
  1 74  1  0  0  0  0
  1 75  1  0  0  0  0
M  END
> <Potency>
39.2414620334616

> <pIC50>
4.406254820322765

> <Outcome>
Inactive

> <is_active>
0

$$$$

  Mrv1921 08232120312D          

 62 65  0  0  0  0            999 V2000
   -3.0200   -0.0080    0.0000 C   0  0  0  0  0  0  0  0  0  0  0  0
   -2.2165   -0.1951    0.0000 C   0  0  0  0  0  0  0  0  0  0  0  0
   -2.4036   -0.9986    0.0000 C   0  0  0  0  0  0  0  0  0  0  0  0
   -2.8839   -1.6693    0.0000 H   0  0  0  0  0  0  0  0  0  0  0  0
   -1.9677   -1.6990    0.0000 H   0  0  0  0  0  0  0  0  0  0  0  0
   -1.5896   -0.8639    0.0000 H   0  0  0  0  0  0  0  0  0  0  0  0
   -2.0294    0.6084    0.0000 C   0  0  0  0  0  0  0  0  0  0  0  0
   -1.3587    0.1281    0.0000 H   0  0  0  0  0  0  0  0  0  0  0  0
   -1.3290    1.0443    0.0000 H   0  0  0  0  0  0  0  0  0  0  0  0
   -2.1641    1.4224    0.0000 H   0  0  0  0  0  0  0  0  0  0  0  0
   -1.4130   -0.3822    0.0000 C   0  0  0  0  0  0  0  0  0  0  0  0
   -0.7893    0.1579    0.0000 C   0  0  0  0  0  0  0  0  0  0  0  0
   -0.5890    0.9582    0.0000 H   0  0  0  0  0  0  0  0  0  0  0  0
   -0.0830   -0.2683    0.0000 N   0  0  0  0  0  0  0  0  0  0  0  0
   -0.2700   -1.0718    0.0000 C   0  0  0  0  0  0  0  0  0  0  0  0
    0.2700   -1.6954    0.0000 N   0  0  0  0  0  0  0  0  0  0  0  0
    0.0000   -2.4750    0.0000 C   0  0  0  0  0  0  0  0  0  0  0  0
    0.5401   -3.0986    0.0000 O   0  0  0  0  0  0  0  0  0  0  0  0
   -0.8101   -2.6309    0.0000 C   0  0  0  0  0  0  0  0  0  0  0  0
   -1.1602   -3.3780    0.0000 C   0  0  0  0  0  0  0  0  0  0  0  0
   -0.7616   -4.1003    0.0000 H   0  0  0  0  0  0  0  0  0  0  0  0
   -1.9788   -3.2759    0.0000 O   0  0  0  0  0  0  0  0  0  0  0  0
   -2.1348   -2.4658    0.0000 C   0  0  0  0  0  0  0  0  0  0  0  0
   -2.9597   -2.4557    0.0000 H   0  0  0  0  0  0  0  0  0  0  0  0
   -1.4125   -2.0671    0.0000 N   0  0  0  0  0  0  0  0  0  0  0  0
    1.0802   -1.5395    0.0000 C   0  0  0  0  0  0  0  0  0  0  0  0
    1.6203   -2.1632    0.0000 C   0  0  0  0  0  0  0  0  0  0  0  0
    1.3502   -2.9427    0.0000 O   0  0  0  0  0  0  0  0  0  0  0  0
    2.4304   -2.0073    0.0000 N   0  0  0  0  0  0  0  0  0  0  0  0
    2.9705   -2.6309    0.0000 C   0  0  0  0  0  0  0  0  0  0  0  0
    3.7806   -2.4750    0.0000 C   0  0  0  0  0  0  0  0  0  0  0  0
    4.3207   -3.0986    0.0000 C   0  0  0  0  0  0  0  0  0  0  0  0
    5.1308   -2.9427    0.0000 C   0  0  0  0  0  0  0  0  0  0  0  0
    5.4009   -2.1632    0.0000 H   0  0  0  0  0  0  0  0  0  0  0  0
    5.6709   -3.5664    0.0000 C   0  0  0  0  0  0  0  0  0  0  0  0
    6.4811   -3.4105    0.0000 H   0  0  0  0  0  0  0  0  0  0  0  0
    5.4009   -4.3459    0.0000 C   0  0  0  0  0  0  0  0  0  0  0  0
    5.9410   -4.9696    0.0000 H   0  0  0  0  0  0  0  0  0  0  0  0
    4.5908   -4.5018    0.0000 C   0  0  0  0  0  0  0  0  0  0  0  0
    4.3207   -5.2814    0.0000 F   0  0  0  0  0  0  0  0  0  0  0  0
    4.0507   -3.8782    0.0000 C   0  0  0  0  0  0  0  0  0  0  0  0
    3.2405   -4.0341    0.0000 H   0  0  0  0  0  0  0  0  0  0  0  0
    4.3718   -1.8996    0.0000 H   0  0  0  0  0  0  0  0  0  0  0  0
    3.6721   -1.6572    0.0000 H   0  0  0  0  0  0  0  0  0  0  0  0
    2.3793   -3.2063    0.0000 H   0  0  0  0  0  0  0  0  0  0  0  0
    3.0790   -3.4487    0.0000 H   0  0  0  0  0  0  0  0  0  0  0  0
    2.7004   -1.2277    0.0000 H   0  0  0  0  0  0  0  0  0  0  0  0
    1.3502   -0.7600    0.0000 C   0  0  0  0  0  0  0  0  0  0  0  0
    0.8101   -0.1363    0.0000 C   0  0  0  0  0  0  0  0  0  0  0  0
    0.5232   -0.9098    0.0000 H   0  0  0  0  0  0  0  0  0  0  0  0
    1.0802    0.6432    0.0000 C   0  0  0  0  0  0  0  0  0  0  0  0
    0.5401    1.2668    0.0000 H   0  0  0  0  0  0  0  0  0  0  0  0
    1.8903    0.7991    0.0000 C   0  0  0  0  0  0  0  0  0  0  0  0
    2.1604    1.5787    0.0000 H   0  0  0  0  0  0  0  0  0  0  0  0
    2.4304    0.1755    0.0000 N   0  0  0  0  0  0  0  0  0  0  0  0
    2.1604   -0.6041    0.0000 C   0  0  0  0  0  0  0  0  0  0  0  0
    1.8903   -1.3836    0.0000 H   0  0  0  0  0  0  0  0  0  0  0  0
    0.8101   -2.3191    0.0000 H   0  0  0  0  0  0  0  0  0  0  0  0
   -1.0920   -1.1422    0.0000 O   0  0  0  0  0  0  0  0  0  0  0  0
   -2.8329    0.7955    0.0000 H   0  0  0  0  0  0  0  0  0  0  0  0
   -3.8235    0.1791    0.0000 H   0  0  0  0  0  0  0  0  0  0  0  0
   -3.2071   -0.8115    0.0000 H   0  0  0  0  0  0  0  0  0  0  0  0
  1  2  1  0  0  0  0
  2  3  1  0  0  0  0
  3  4  1  0  0  0  0
  3  5  1  0  0  0  0
  3  6  1  0  0  0  0
  2  7  1  0  0  0  0
  7  8  1  0  0  0  0
  7  9  1  0  0  0  0
  7 10  1  0  0  0  0
  2 11  1  0  0  0  0
 11 12  2  0  0  0  0
 12 13  1  0  0  0  0
 12 14  1  0  0  0  0
 14 15  2  0  0  0  0
 15 16  1  0  0  0  0
 16 17  1  0  0  0  0
 17 18  2  0  0  0  0
 17 19  1  0  0  0  0
 19 20  2  0  0  0  0
 20 21  1  0  0  0  0
 20 22  1  0  0  0  0
 22 23  1  0  0  0  0
 23 24  1  0  0  0  0
 23 25  2  0  0  0  0
 19 25  1  0  0  0  0
 16 26  1  0  0  0  0
 26 27  1  0  0  0  0
 27 28  2  0  0  0  0
 27 29  1  0  0  0  0
 29 30  1  0  0  0  0
 30 31  1  0  0  0  0
 31 32  1  0  0  0  0
 32 33  2  0  0  0  0
 33 34  1  0  0  0  0
 33 35  1  0  0  0  0
 35 36  1  0  0  0  0
 35 37  2  0  0  0  0
 37 38  1  0  0  0  0
 37 39  1  0  0  0  0
 39 40  1  0  0  0  0
 39 41  2  0  0  0  0
 32 41  1  0  0  0  0
 41 42  1  0  0  0  0
 31 43  1  0  0  0  0
 31 44  1  0  0  0  0
 30 45  1  0  0  0  0
 30 46  1  0  0  0  0
 29 47  1  0  0  0  0
 26 48  1  0  0  0  0
 48 49  2  0  0  0  0
 49 50  1  0  0  0  0
 49 51  1  0  0  0  0
 51 52  1  0  0  0  0
 51 53  2  0  0  0  0
 53 54  1  0  0  0  0
 53 55  1  0  0  0  0
 55 56  2  0  0  0  0
 48 56  1  0  0  0  0
 56 57  1  0  0  0  0
 26 58  1  0  0  0  0
 15 59  1  0  0  0  0
 11 59  1  0  0  0  0
  1 60  1  0  0  0  0
  1 61  1  0  0  0  0
  1 62  1  0  0  0  0
M  END
> <Potency>
32.434483068324

> <pIC50>
4.488993019341999

> <Outcome>
Inactive

> <is_active>
0

$$$$

  Mrv1921 08232120312D          

 70 74  0  0  0  0            999 V2000
   -4.0507    1.1109    0.0000 C   0  0  0  0  0  0  0  0  0  0  0  0
   -3.2405    1.2668    0.0000 N   0  0  0  0  0  0  0  0  0  0  0  0
   -2.9705    2.0464    0.0000 C   0  0  0  0  0  0  0  0  0  0  0  0
   -3.1732    2.8461    0.0000 H   0  0  0  0  0  0  0  0  0  0  0  0
   -3.7330    2.3613    0.0000 H   0  0  0  0  0  0  0  0  0  0  0  0
   -2.1604    2.2023    0.0000 C   0  0  0  0  0  0  0  0  0  0  0  0
   -1.5692    2.7777    0.0000 H   0  0  0  0  0  0  0  0  0  0  0  0
   -2.2689    3.0201    0.0000 H   0  0  0  0  0  0  0  0  0  0  0  0
   -1.6203    1.5787    0.0000 C   0  0  0  0  0  0  0  0  0  0  0  0
   -0.8263    1.3544    0.0000 H   0  0  0  0  0  0  0  0  0  0  0  0
   -0.9663    2.0816    0.0000 H   0  0  0  0  0  0  0  0  0  0  0  0
   -1.8903    0.7991    0.0000 N   0  0  0  0  0  0  0  0  0  0  0  0
   -1.3502    0.1755    0.0000 C   0  0  0  0  0  0  0  0  0  0  0  0
   -0.5401    0.3314    0.0000 C   0  0  0  0  0  0  0  0  0  0  0  0
   -0.2700    1.1109    0.0000 H   0  0  0  0  0  0  0  0  0  0  0  0
    0.0000   -0.2923    0.0000 C   0  0  0  0  0  0  0  0  0  0  0  0
    0.5401   -0.9159    0.0000 H   0  0  0  0  0  0  0  0  0  0  0  0
   -0.2700   -1.0718    0.0000 C   0  0  0  0  0  0  0  0  0  0  0  0
    0.2700   -1.6954    0.0000 N   0  0  0  0  0  0  0  0  0  0  0  0
    0.0000   -2.4750    0.0000 C   0  0  0  0  0  0  0  0  0  0  0  0
    0.5401   -3.0986    0.0000 O   0  0  0  0  0  0  0  0  0  0  0  0
   -0.8101   -2.6309    0.0000 C   0  0  0  0  0  0  0  0  0  0  0  0
   -1.1602   -3.3780    0.0000 C   0  0  0  0  0  0  0  0  0  0  0  0
   -0.7616   -4.1003    0.0000 H   0  0  0  0  0  0  0  0  0  0  0  0
   -1.9788   -3.2759    0.0000 O   0  0  0  0  0  0  0  0  0  0  0  0
   -2.1348   -2.4658    0.0000 C   0  0  0  0  0  0  0  0  0  0  0  0
   -2.8818   -2.1157    0.0000 H   0  0  0  0  0  0  0  0  0  0  0  0
   -1.4125   -2.0671    0.0000 N   0  0  0  0  0  0  0  0  0  0  0  0
    1.0802   -1.5395    0.0000 C   0  0  0  0  0  0  0  0  0  0  0  0
    1.6203   -2.1632    0.0000 C   0  0  0  0  0  0  0  0  0  0  0  0
    1.3502   -2.9427    0.0000 O   0  0  0  0  0  0  0  0  0  0  0  0
    2.4304   -2.0073    0.0000 N   0  0  0  0  0  0  0  0  0  0  0  0
    2.9705   -2.6309    0.0000 C   0  0  0  0  0  0  0  0  0  0  0  0
    3.7806   -2.4750    0.0000 C   0  0  0  0  0  0  0  0  0  0  0  0
    4.3207   -3.0986    0.0000 C   0  0  0  0  0  0  0  0  0  0  0  0
    5.1308   -2.9427    0.0000 C   0  0  0  0  0  0  0  0  0  0  0  0
    5.4009   -2.1632    0.0000 H   0  0  0  0  0  0  0  0  0  0  0  0
    5.6709   -3.5664    0.0000 C   0  0  0  0  0  0  0  0  0  0  0  0
    6.4811   -3.4105    0.0000 H   0  0  0  0  0  0  0  0  0  0  0  0
    5.4009   -4.3459    0.0000 C   0  0  0  0  0  0  0  0  0  0  0  0
    5.9410   -4.9696    0.0000 H   0  0  0  0  0  0  0  0  0  0  0  0
    4.5908   -4.5018    0.0000 C   0  0  0  0  0  0  0  0  0  0  0  0
    4.3207   -5.2814    0.0000 F   0  0  0  0  0  0  0  0  0  0  0  0
    4.0507   -3.8782    0.0000 C   0  0  0  0  0  0  0  0  0  0  0  0
    3.2405   -4.0341    0.0000 H   0  0  0  0  0  0  0  0  0  0  0  0
    4.3718   -1.8996    0.0000 H   0  0  0  0  0  0  0  0  0  0  0  0
    3.6721   -1.6572    0.0000 H   0  0  0  0  0  0  0  0  0  0  0  0
    2.3793   -3.2063    0.0000 H   0  0  0  0  0  0  0  0  0  0  0  0
    3.0790   -3.4487    0.0000 H   0  0  0  0  0  0  0  0  0  0  0  0
    2.7004   -1.2277    0.0000 H   0  0  0  0  0  0  0  0  0  0  0  0
    1.3502   -0.7600    0.0000 C   0  0  0  0  0  0  0  0  0  0  0  0
    0.8101   -0.1363    0.0000 C   0  0  0  0  0  0  0  0  0  0  0  0
    0.2700    0.4873    0.0000 H   0  0  0  0  0  0  0  0  0  0  0  0
    1.0802    0.6432    0.0000 C   0  0  0  0  0  0  0  0  0  0  0  0
    0.9243    1.4533    0.0000 H   0  0  0  0  0  0  0  0  0  0  0  0
    1.8903    0.7991    0.0000 C   0  0  0  0  0  0  0  0  0  0  0  0
    2.1604    1.5787    0.0000 H   0  0  0  0  0  0  0  0  0  0  0  0
    2.4304    0.1755    0.0000 N   0  0  0  0  0  0  0  0  0  0  0  0
    2.1604   -0.6041    0.0000 C   0  0  0  0  0  0  0  0  0  0  0  0
    1.8903   -1.3836    0.0000 H   0  0  0  0  0  0  0  0  0  0  0  0
    0.8101   -2.3191    0.0000 H   0  0  0  0  0  0  0  0  0  0  0  0
   -1.0802   -1.2277    0.0000 C   0  0  0  0  0  0  0  0  0  0  0  0
   -1.8935   -1.3660    0.0000 H   0  0  0  0  0  0  0  0  0  0  0  0
   -1.6203   -0.6041    0.0000 C   0  0  0  0  0  0  0  0  0  0  0  0
   -2.3983   -0.3298    0.0000 H   0  0  0  0  0  0  0  0  0  0  0  0
   -2.7004    0.6432    0.0000 C   0  0  0  0  0  0  0  0  0  0  0  0
   -2.9705   -0.1363    0.0000 O   0  0  0  0  0  0  0  0  0  0  0  0
   -4.2066    1.9211    0.0000 H   0  0  0  0  0  0  0  0  0  0  0  0
   -4.8608    0.9550    0.0000 H   0  0  0  0  0  0  0  0  0  0  0  0
   -3.8948    0.3008    0.0000 H   0  0  0  0  0  0  0  0  0  0  0  0
  1  2  1  0  0  0  0
  2  3  1  0  0  0  0
  3  4  1  0  0  0  0
  3  5  1  0  0  0  0
  3  6  1  0  0  0  0
  6  7  1  0  0  0  0
  6  8  1  0  0  0  0
  6  9  1  0  0  0  0
  9 10  1  0  0  0  0
  9 11  1  0  0  0  0
  9 12  1  0  0  0  0
 12 13  1  0  0  0  0
 13 14  2  0  0  0  0
 14 15  1  0  0  0  0
 14 16  1  0  0  0  0
 16 17  1  0  0  0  0
 16 18  2  0  0  0  0
 18 19  1  0  0  0  0
 19 20  1  0  0  0  0
 20 21  2  0  0  0  0
 20 22  1  0  0  0  0
 22 23  2  0  0  0  0
 23 24  1  0  0  0  0
 23 25  1  0  0  0  0
 25 26  1  0  0  0  0
 26 27  1  0  0  0  0
 26 28  2  0  0  0  0
 22 28  1  0  0  0  0
 19 29  1  0  0  0  0
 29 30  1  0  0  0  0
 30 31  2  0  0  0  0
 30 32  1  0  0  0  0
 32 33  1  0  0  0  0
 33 34  1  0  0  0  0
 34 35  1  0  0  0  0
 35 36  2  0  0  0  0
 36 37  1  0  0  0  0
 36 38  1  0  0  0  0
 38 39  1  0  0  0  0
 38 40  2  0  0  0  0
 40 41  1  0  0  0  0
 40 42  1  0  0  0  0
 42 43  1  0  0  0  0
 42 44  2  0  0  0  0
 35 44  1  0  0  0  0
 44 45  1  0  0  0  0
 34 46  1  0  0  0  0
 34 47  1  0  0  0  0
 33 48  1  0  0  0  0
 33 49  1  0  0  0  0
 32 50  1  0  0  0  0
 29 51  1  0  0  0  0
 51 52  2  0  0  0  0
 52 53  1  0  0  0  0
 52 54  1  0  0  0  0
 54 55  1  0  0  0  0
 54 56  2  0  0  0  0
 56 57  1  0  0  0  0
 56 58  1  0  0  0  0
 58 59  2  0  0  0  0
 51 59  1  0  0  0  0
 59 60  1  0  0  0  0
 29 61  1  0  0  0  0
 18 62  1  0  0  0  0
 62 63  1  0  0  0  0
 62 64  2  0  0  0  0
 13 64  1  0  0  0  0
 64 65  1  0  0  0  0
 12 66  1  0  0  0  0
  2 66  1  0  0  0  0
 66 67  2  0  0  0  0
  1 68  1  0  0  0  0
  1 69  1  0  0  0  0
  1 70  1  0  0  0  0
M  END
> <Potency>
61.0432085404329

> <pIC50>
4.21436264715699

> <Outcome>
Inactive

> <is_active>
0

$$$$

  Mrv1921 08232120312D          

 62 65  0  0  0  0            999 V2000
   -0.9301    1.8019    0.0000 C   0  0  0  0  0  0  0  0  0  0  0  0
   -0.8597    0.9799    0.0000 C   0  0  0  0  0  0  0  0  0  0  0  0
   -1.6817    0.9095    0.0000 C   0  0  0  0  0  0  0  0  0  0  0  0
   -2.4681    1.1591    0.0000 H   0  0  0  0  0  0  0  0  0  0  0  0
   -2.2132    0.2785    0.0000 H   0  0  0  0  0  0  0  0  0  0  0  0
   -1.3021    0.1771    0.0000 H   0  0  0  0  0  0  0  0  0  0  0  0
   -0.0377    1.0503    0.0000 C   0  0  0  0  0  0  0  0  0  0  0  0
   -0.2873    0.2639    0.0000 H   0  0  0  0  0  0  0  0  0  0  0  0
    0.5933    0.5188    0.0000 H   0  0  0  0  0  0  0  0  0  0  0  0
    0.6948    1.4299    0.0000 H   0  0  0  0  0  0  0  0  0  0  0  0
   -0.7893    0.1579    0.0000 C   0  0  0  0  0  0  0  0  0  0  0  0
   -0.0830   -0.2683    0.0000 C   0  0  0  0  0  0  0  0  0  0  0  0
    0.3332    0.4440    0.0000 H   0  0  0  0  0  0  0  0  0  0  0  0
   -0.2700   -1.0718    0.0000 C   0  0  0  0  0  0  0  0  0  0  0  0
    0.2700   -1.6954    0.0000 N   0  0  0  0  0  0  0  0  0  0  0  0
    0.0000   -2.4750    0.0000 C   0  0  0  0  0  0  0  0  0  0  0  0
    0.5401   -3.0986    0.0000 O   0  0  0  0  0  0  0  0  0  0  0  0
   -0.8101   -2.6309    0.0000 C   0  0  0  0  0  0  0  0  0  0  0  0
   -1.1602   -3.3780    0.0000 C   0  0  0  0  0  0  0  0  0  0  0  0
   -0.7616   -4.1003    0.0000 H   0  0  0  0  0  0  0  0  0  0  0  0
   -1.9788   -3.2759    0.0000 O   0  0  0  0  0  0  0  0  0  0  0  0
   -2.1348   -2.4658    0.0000 C   0  0  0  0  0  0  0  0  0  0  0  0
   -2.8818   -2.1157    0.0000 H   0  0  0  0  0  0  0  0  0  0  0  0
   -1.4125   -2.0671    0.0000 N   0  0  0  0  0  0  0  0  0  0  0  0
    1.0802   -1.5395    0.0000 C   0  0  0  0  0  0  0  0  0  0  0  0
    1.6203   -2.1632    0.0000 C   0  0  0  0  0  0  0  0  0  0  0  0
    1.3502   -2.9427    0.0000 O   0  0  0  0  0  0  0  0  0  0  0  0
    2.4304   -2.0073    0.0000 N   0  0  0  0  0  0  0  0  0  0  0  0
    2.9705   -2.6309    0.0000 C   0  0  0  0  0  0  0  0  0  0  0  0
    3.7806   -2.4750    0.0000 C   0  0  0  0  0  0  0  0  0  0  0  0
    4.3207   -3.0986    0.0000 C   0  0  0  0  0  0  0  0  0  0  0  0
    5.1308   -2.9427    0.0000 C   0  0  0  0  0  0  0  0  0  0  0  0
    5.4009   -2.1632    0.0000 H   0  0  0  0  0  0  0  0  0  0  0  0
    5.6709   -3.5664    0.0000 C   0  0  0  0  0  0  0  0  0  0  0  0
    6.4811   -3.4105    0.0000 H   0  0  0  0  0  0  0  0  0  0  0  0
    5.4009   -4.3459    0.0000 C   0  0  0  0  0  0  0  0  0  0  0  0
    5.9410   -4.9696    0.0000 H   0  0  0  0  0  0  0  0  0  0  0  0
    4.5908   -4.5018    0.0000 C   0  0  0  0  0  0  0  0  0  0  0  0
    4.3207   -5.2814    0.0000 F   0  0  0  0  0  0  0  0  0  0  0  0
    4.0507   -3.8782    0.0000 C   0  0  0  0  0  0  0  0  0  0  0  0
    3.2405   -4.0341    0.0000 H   0  0  0  0  0  0  0  0  0  0  0  0
    4.3718   -1.8996    0.0000 H   0  0  0  0  0  0  0  0  0  0  0  0
    3.6721   -1.6572    0.0000 H   0  0  0  0  0  0  0  0  0  0  0  0
    2.3793   -3.2063    0.0000 H   0  0  0  0  0  0  0  0  0  0  0  0
    3.0790   -3.4487    0.0000 H   0  0  0  0  0  0  0  0  0  0  0  0
    2.7004   -1.2277    0.0000 H   0  0  0  0  0  0  0  0  0  0  0  0
    1.3502   -0.7600    0.0000 C   0  0  0  0  0  0  0  0  0  0  0  0
    0.8101   -0.1363    0.0000 C   0  0  0  0  0  0  0  0  0  0  0  0
    0.5232   -0.9098    0.0000 H   0  0  0  0  0  0  0  0  0  0  0  0
    1.0802    0.6432    0.0000 C   0  0  0  0  0  0  0  0  0  0  0  0
    1.4483    1.3815    0.0000 H   0  0  0  0  0  0  0  0  0  0  0  0
    1.8903    0.7991    0.0000 C   0  0  0  0  0  0  0  0  0  0  0  0
    2.5311    1.3188    0.0000 H   0  0  0  0  0  0  0  0  0  0  0  0
    2.4304    0.1755    0.0000 N   0  0  0  0  0  0  0  0  0  0  0  0
    2.1604   -0.6041    0.0000 C   0  0  0  0  0  0  0  0  0  0  0  0
    1.8903   -1.3836    0.0000 H   0  0  0  0  0  0  0  0  0  0  0  0
    0.8101   -2.3191    0.0000 H   0  0  0  0  0  0  0  0  0  0  0  0
   -1.0920   -1.1422    0.0000 N   0  0  0  0  0  0  0  0  0  0  0  0
   -1.4130   -0.3822    0.0000 O   0  0  0  0  0  0  0  0  0  0  0  0
   -0.1081    1.8723    0.0000 H   0  0  0  0  0  0  0  0  0  0  0  0
   -1.0005    2.6239    0.0000 H   0  0  0  0  0  0  0  0  0  0  0  0
   -1.7521    1.7315    0.0000 H   0  0  0  0  0  0  0  0  0  0  0  0
  1  2  1  0  0  0  0
  2  3  1  0  0  0  0
  3  4  1  0  0  0  0
  3  5  1  0  0  0  0
  3  6  1  0  0  0  0
  2  7  1  0  0  0  0
  7  8  1  0  0  0  0
  7  9  1  0  0  0  0
  7 10  1  0  0  0  0
  2 11  1  0  0  0  0
 11 12  2  0  0  0  0
 12 13  1  0  0  0  0
 12 14  1  0  0  0  0
 14 15  1  0  0  0  0
 15 16  1  0  0  0  0
 16 17  2  0  0  0  0
 16 18  1  0  0  0  0
 18 19  2  0  0  0  0
 19 20  1  0  0  0  0
 19 21  1  0  0  0  0
 21 22  1  0  0  0  0
 22 23  1  0  0  0  0
 22 24  2  0  0  0  0
 18 24  1  0  0  0  0
 15 25  1  0  0  0  0
 25 26  1  0  0  0  0
 26 27  2  0  0  0  0
 26 28  1  0  0  0  0
 28 29  1  0  0  0  0
 29 30  1  0  0  0  0
 30 31  1  0  0  0  0
 31 32  2  0  0  0  0
 32 33  1  0  0  0  0
 32 34  1  0  0  0  0
 34 35  1  0  0  0  0
 34 36  2  0  0  0  0
 36 37  1  0  0  0  0
 36 38  1  0  0  0  0
 38 39  1  0  0  0  0
 38 40  2  0  0  0  0
 31 40  1  0  0  0  0
 40 41  1  0  0  0  0
 30 42  1  0  0  0  0
 30 43  1  0  0  0  0
 29 44  1  0  0  0  0
 29 45  1  0  0  0  0
 28 46  1  0  0  0  0
 25 47  1  0  0  0  0
 47 48  2  0  0  0  0
 48 49  1  0  0  0  0
 48 50  1  0  0  0  0
 50 51  1  0  0  0  0
 50 52  2  0  0  0  0
 52 53  1  0  0  0  0
 52 54  1  0  0  0  0
 54 55  2  0  0  0  0
 47 55  1  0  0  0  0
 55 56  1  0  0  0  0
 25 57  1  0  0  0  0
 14 58  2  0  0  0  0
 58 59  1  0  0  0  0
 11 59  1  0  0  0  0
  1 60  1  0  0  0  0
  1 61  1  0  0  0  0
  1 62  1  0  0  0  0
M  END
> <Potency>
51.2490629731775

> <pIC50>
4.290314070746327

> <Outcome>
Inactive

> <is_active>
0

$$$$

  Mrv1921 08232120312D          

 65 68  0  0  0  0            999 V2000
   -2.4304    1.4228    0.0000 C   0  0  0  0  0  0  0  0  0  0  0  0
   -1.8903    0.7991    0.0000 C   0  0  0  0  0  0  0  0  0  0  0  0
   -2.5140    0.2590    0.0000 C   0  0  0  0  0  0  0  0  0  0  0  0
   -3.2968   -0.0013    0.0000 H   0  0  0  0  0  0  0  0  0  0  0  0
   -2.5730   -0.5639    0.0000 H   0  0  0  0  0  0  0  0  0  0  0  0
   -1.7763   -0.1105    0.0000 H   0  0  0  0  0  0  0  0  0  0  0  0
   -1.2667    1.3392    0.0000 C   0  0  0  0  0  0  0  0  0  0  0  0
   -1.0064    0.5564    0.0000 H   0  0  0  0  0  0  0  0  0  0  0  0
   -0.4438    1.2801    0.0000 H   0  0  0  0  0  0  0  0  0  0  0  0
   -0.8972    2.0768    0.0000 H   0  0  0  0  0  0  0  0  0  0  0  0
   -1.3502    0.1755    0.0000 C   0  0  0  0  0  0  0  0  0  0  0  0
   -0.5401    0.3314    0.0000 C   0  0  0  0  0  0  0  0  0  0  0  0
    0.2465    0.5801    0.0000 H   0  0  0  0  0  0  0  0  0  0  0  0
    0.0000   -0.2923    0.0000 C   0  0  0  0  0  0  0  0  0  0  0  0
    0.5401   -0.9159    0.0000 H   0  0  0  0  0  0  0  0  0  0  0  0
   -0.2700   -1.0718    0.0000 C   0  0  0  0  0  0  0  0  0  0  0  0
    0.2700   -1.6954    0.0000 N   0  0  0  0  0  0  0  0  0  0  0  0
    0.0000   -2.4750    0.0000 C   0  0  0  0  0  0  0  0  0  0  0  0
    0.5401   -3.0986    0.0000 O   0  0  0  0  0  0  0  0  0  0  0  0
   -0.8101   -2.6309    0.0000 C   0  0  0  0  0  0  0  0  0  0  0  0
   -1.1602   -3.3780    0.0000 C   0  0  0  0  0  0  0  0  0  0  0  0
   -0.7616   -4.1003    0.0000 H   0  0  0  0  0  0  0  0  0  0  0  0
   -1.9788   -3.2759    0.0000 N   0  0  0  0  0  0  0  0  0  0  0  0
   -2.1348   -2.4658    0.0000 S   0  0  0  0  0  0  0  0  0  0  0  0
   -1.4125   -2.0671    0.0000 N   0  0  0  0  0  0  0  0  0  0  0  0
    1.0802   -1.5395    0.0000 C   0  0  0  0  0  0  0  0  0  0  0  0
    1.6203   -2.1632    0.0000 C   0  0  0  0  0  0  0  0  0  0  0  0
    1.3502   -2.9427    0.0000 O   0  0  0  0  0  0  0  0  0  0  0  0
    2.4304   -2.0073    0.0000 N   0  0  0  0  0  0  0  0  0  0  0  0
    2.9705   -2.6309    0.0000 C   0  0  0  0  0  0  0  0  0  0  0  0
    3.7806   -2.4750    0.0000 C   0  0  0  0  0  0  0  0  0  0  0  0
    4.3207   -3.0986    0.0000 C   0  0  0  0  0  0  0  0  0  0  0  0
    5.1308   -2.9427    0.0000 C   0  0  0  0  0  0  0  0  0  0  0  0
    5.4009   -2.1632    0.0000 H   0  0  0  0  0  0  0  0  0  0  0  0
    5.6709   -3.5664    0.0000 C   0  0  0  0  0  0  0  0  0  0  0  0
    6.4811   -3.4105    0.0000 H   0  0  0  0  0  0  0  0  0  0  0  0
    5.4009   -4.3459    0.0000 C   0  0  0  0  0  0  0  0  0  0  0  0
    5.9410   -4.9696    0.0000 H   0  0  0  0  0  0  0  0  0  0  0  0
    4.5908   -4.5018    0.0000 C   0  0  0  0  0  0  0  0  0  0  0  0
    4.3207   -5.2814    0.0000 F   0  0  0  0  0  0  0  0  0  0  0  0
    4.0507   -3.8782    0.0000 C   0  0  0  0  0  0  0  0  0  0  0  0
    3.2405   -4.0341    0.0000 H   0  0  0  0  0  0  0  0  0  0  0  0
    4.3718   -1.8996    0.0000 H   0  0  0  0  0  0  0  0  0  0  0  0
    3.6721   -1.6572    0.0000 H   0  0  0  0  0  0  0  0  0  0  0  0
    2.3793   -3.2063    0.0000 H   0  0  0  0  0  0  0  0  0  0  0  0
    3.0790   -3.4487    0.0000 H   0  0  0  0  0  0  0  0  0  0  0  0
    2.7004   -1.2277    0.0000 H   0  0  0  0  0  0  0  0  0  0  0  0
    1.3502   -0.7600    0.0000 C   0  0  0  0  0  0  0  0  0  0  0  0
    0.8101   -0.1363    0.0000 C   0  0  0  0  0  0  0  0  0  0  0  0
    1.6203    0.0196    0.0000 H   0  0  0  0  0  0  0  0  0  0  0  0
    1.0802    0.6432    0.0000 C   0  0  0  0  0  0  0  0  0  0  0  0
    0.9709    1.4609    0.0000 H   0  0  0  0  0  0  0  0  0  0  0  0
    1.8903    0.7991    0.0000 C   0  0  0  0  0  0  0  0  0  0  0  0
    2.1604    1.5787    0.0000 H   0  0  0  0  0  0  0  0  0  0  0  0
    2.4304    0.1755    0.0000 N   0  0  0  0  0  0  0  0  0  0  0  0
    2.1604   -0.6041    0.0000 C   0  0  0  0  0  0  0  0  0  0  0  0
    1.8903   -1.3836    0.0000 H   0  0  0  0  0  0  0  0  0  0  0  0
    0.8101   -2.3191    0.0000 H   0  0  0  0  0  0  0  0  0  0  0  0
   -1.0802   -1.2277    0.0000 C   0  0  0  0  0  0  0  0  0  0  0  0
   -1.8935   -1.3660    0.0000 H   0  0  0  0  0  0  0  0  0  0  0  0
   -1.6203   -0.6041    0.0000 C   0  0  0  0  0  0  0  0  0  0  0  0
   -0.8101   -0.4482    0.0000 H   0  0  0  0  0  0  0  0  0  0  0  0
   -1.8068    1.9628    0.0000 H   0  0  0  0  0  0  0  0  0  0  0  0
   -2.9705    2.0464    0.0000 H   0  0  0  0  0  0  0  0  0  0  0  0
   -3.0540    0.8827    0.0000 H   0  0  0  0  0  0  0  0  0  0  0  0
  1  2  1  0  0  0  0
  2  3  1  0  0  0  0
  3  4  1  0  0  0  0
  3  5  1  0  0  0  0
  3  6  1  0  0  0  0
  2  7  1  0  0  0  0
  7  8  1  0  0  0  0
  7  9  1  0  0  0  0
  7 10  1  0  0  0  0
  2 11  1  0  0  0  0
 11 12  2  0  0  0  0
 12 13  1  0  0  0  0
 12 14  1  0  0  0  0
 14 15  1  0  0  0  0
 14 16  2  0  0  0  0
 16 17  1  0  0  0  0
 17 18  1  0  0  0  0
 18 19  2  0  0  0  0
 18 20  1  0  0  0  0
 20 21  1  0  0  0  0
 21 22  1  0  0  0  0
 21 23  2  0  0  0  0
 23 24  1  0  0  0  0
 24 25  1  0  0  0  0
 20 25  2  0  0  0  0
 17 26  1  0  0  0  0
 26 27  1  0  0  0  0
 27 28  2  0  0  0  0
 27 29  1  0  0  0  0
 29 30  1  0  0  0  0
 30 31  1  0  0  0  0
 31 32  1  0  0  0  0
 32 33  2  0  0  0  0
 33 34  1  0  0  0  0
 33 35  1  0  0  0  0
 35 36  1  0  0  0  0
 35 37  2  0  0  0  0
 37 38  1  0  0  0  0
 37 39  1  0  0  0  0
 39 40  1  0  0  0  0
 39 41  2  0  0  0  0
 32 41  1  0  0  0  0
 41 42  1  0  0  0  0
 31 43  1  0  0  0  0
 31 44  1  0  0  0  0
 30 45  1  0  0  0  0
 30 46  1  0  0  0  0
 29 47  1  0  0  0  0
 26 48  1  0  0  0  0
 48 49  2  0  0  0  0
 49 50  1  0  0  0  0
 49 51  1  0  0  0  0
 51 52  1  0  0  0  0
 51 53  2  0  0  0  0
 53 54  1  0  0  0  0
 53 55  1  0  0  0  0
 55 56  2  0  0  0  0
 48 56  1  0  0  0  0
 56 57  1  0  0  0  0
 26 58  1  0  0  0  0
 16 59  1  0  0  0  0
 59 60  1  0  0  0  0
 59 61  2  0  0  0  0
 11 61  1  0  0  0  0
 61 62  1  0  0  0  0
  1 63  1  0  0  0  0
  1 64  1  0  0  0  0
  1 65  1  0  0  0  0
M  END
> <Potency>
13.1737877164944

> <pIC50>
4.880289339095346

> <Outcome>
Inactive

> <is_active>
0

$$$$

  Mrv1921 08232120312D          

 67 71  0  0  0  0            999 V2000
   -1.8903    2.9819    0.0000 O   0  0  0  0  0  0  0  0  0  0  0  0
   -2.1604    2.2023    0.0000 C   0  0  0  0  0  0  0  0  0  0  0  0
   -1.6203    1.5787    0.0000 C   0  0  0  0  0  0  0  0  0  0  0  0
   -0.8263    1.3544    0.0000 H   0  0  0  0  0  0  0  0  0  0  0  0
   -0.9663    2.0816    0.0000 H   0  0  0  0  0  0  0  0  0  0  0  0
   -1.8903    0.7991    0.0000 C   0  0  0  0  0  0  0  0  0  0  0  0
   -1.3502    0.1755    0.0000 C   0  0  0  0  0  0  0  0  0  0  0  0
   -0.5401    0.3314    0.0000 C   0  0  0  0  0  0  0  0  0  0  0  0
   -0.2700    1.1109    0.0000 H   0  0  0  0  0  0  0  0  0  0  0  0
    0.0000   -0.2923    0.0000 C   0  0  0  0  0  0  0  0  0  0  0  0
    0.5401   -0.9159    0.0000 H   0  0  0  0  0  0  0  0  0  0  0  0
   -0.2700   -1.0718    0.0000 C   0  0  0  0  0  0  0  0  0  0  0  0
    0.2700   -1.6954    0.0000 N   0  0  0  0  0  0  0  0  0  0  0  0
    0.0000   -2.4750    0.0000 C   0  0  0  0  0  0  0  0  0  0  0  0
    0.5401   -3.0986    0.0000 O   0  0  0  0  0  0  0  0  0  0  0  0
   -0.8101   -2.6309    0.0000 C   0  0  0  0  0  0  0  0  0  0  0  0
   -1.1602   -3.3780    0.0000 C   0  0  0  0  0  0  0  0  0  0  0  0
   -0.7616   -4.1003    0.0000 H   0  0  0  0  0  0  0  0  0  0  0  0
   -1.9788   -3.2759    0.0000 O   0  0  0  0  0  0  0  0  0  0  0  0
   -2.1348   -2.4658    0.0000 C   0  0  0  0  0  0  0  0  0  0  0  0
   -2.8818   -2.1157    0.0000 H   0  0  0  0  0  0  0  0  0  0  0  0
   -1.4125   -2.0671    0.0000 N   0  0  0  0  0  0  0  0  0  0  0  0
    1.0802   -1.5395    0.0000 C   0  0  0  0  0  0  0  0  0  0  0  0
    1.6203   -2.1632    0.0000 C   0  0  0  0  0  0  0  0  0  0  0  0
    1.3502   -2.9427    0.0000 O   0  0  0  0  0  0  0  0  0  0  0  0
    2.4304   -2.0073    0.0000 N   0  0  0  0  0  0  0  0  0  0  0  0
    2.9705   -2.6309    0.0000 C   0  0  0  0  0  0  0  0  0  0  0  0
    3.7806   -2.4750    0.0000 C   0  0  0  0  0  0  0  0  0  0  0  0
    4.3207   -3.0986    0.0000 C   0  0  0  0  0  0  0  0  0  0  0  0
    5.1308   -2.9427    0.0000 C   0  0  0  0  0  0  0  0  0  0  0  0
    5.4009   -2.1632    0.0000 H   0  0  0  0  0  0  0  0  0  0  0  0
    5.6709   -3.5664    0.0000 C   0  0  0  0  0  0  0  0  0  0  0  0
    6.4811   -3.4105    0.0000 H   0  0  0  0  0  0  0  0  0  0  0  0
    5.4009   -4.3459    0.0000 C   0  0  0  0  0  0  0  0  0  0  0  0
    5.9410   -4.9696    0.0000 H   0  0  0  0  0  0  0  0  0  0  0  0
    4.5908   -4.5018    0.0000 C   0  0  0  0  0  0  0  0  0  0  0  0
    4.3207   -5.2814    0.0000 F   0  0  0  0  0  0  0  0  0  0  0  0
    4.0507   -3.8782    0.0000 C   0  0  0  0  0  0  0  0  0  0  0  0
    3.2405   -4.0341    0.0000 H   0  0  0  0  0  0  0  0  0  0  0  0
    4.3718   -1.8996    0.0000 H   0  0  0  0  0  0  0  0  0  0  0  0
    3.6721   -1.6572    0.0000 H   0  0  0  0  0  0  0  0  0  0  0  0
    2.3793   -3.2063    0.0000 H   0  0  0  0  0  0  0  0  0  0  0  0
    3.0790   -3.4487    0.0000 H   0  0  0  0  0  0  0  0  0  0  0  0
    2.7004   -1.2277    0.0000 H   0  0  0  0  0  0  0  0  0  0  0  0
    1.3502   -0.7600    0.0000 C   0  0  0  0  0  0  0  0  0  0  0  0
    0.8101   -0.1363    0.0000 C   0  0  0  0  0  0  0  0  0  0  0  0
    0.2700    0.4873    0.0000 H   0  0  0  0  0  0  0  0  0  0  0  0
    1.0802    0.6432    0.0000 C   0  0  0  0  0  0  0  0  0  0  0  0
    0.9243    1.4533    0.0000 H   0  0  0  0  0  0  0  0  0  0  0  0
    1.8903    0.7991    0.0000 C   0  0  0  0  0  0  0  0  0  0  0  0
    2.1604    1.5787    0.0000 H   0  0  0  0  0  0  0  0  0  0  0  0
    2.4304    0.1755    0.0000 N   0  0  0  0  0  0  0  0  0  0  0  0
    2.1604   -0.6041    0.0000 C   0  0  0  0  0  0  0  0  0  0  0  0
    1.8903   -1.3836    0.0000 H   0  0  0  0  0  0  0  0  0  0  0  0
    0.8101   -2.3191    0.0000 H   0  0  0  0  0  0  0  0  0  0  0  0
   -1.0802   -1.2277    0.0000 C   0  0  0  0  0  0  0  0  0  0  0  0
   -1.8935   -1.3660    0.0000 H   0  0  0  0  0  0  0  0  0  0  0  0
   -1.6203   -0.6041    0.0000 C   0  0  0  0  0  0  0  0  0  0  0  0
   -2.4312   -0.7556    0.0000 H   0  0  0  0  0  0  0  0  0  0  0  0
   -2.1604    0.0196    0.0000 H   0  0  0  0  0  0  0  0  0  0  0  0
   -2.7004    0.6432    0.0000 C   0  0  0  0  0  0  0  0  0  0  0  0
   -3.4712    0.3490    0.0000 H   0  0  0  0  0  0  0  0  0  0  0  0
   -3.1018   -0.0776    0.0000 H   0  0  0  0  0  0  0  0  0  0  0  0
   -3.2405    1.2668    0.0000 C   0  0  0  0  0  0  0  0  0  0  0  0
   -4.0507    1.1109    0.0000 O   0  0  0  0  0  0  0  0  0  0  0  0
   -2.9705    2.0464    0.0000 N   0  0  0  0  0  0  0  0  0  0  0  0
   -3.5106    2.6700    0.0000 H   0  0  0  0  0  0  0  0  0  0  0  0
  1  2  2  0  0  0  0
  2  3  1  0  0  0  0
  3  4  1  0  0  0  0
  3  5  1  0  0  0  0
  3  6  1  0  0  0  0
  6  7  1  0  0  0  0
  7  8  2  0  0  0  0
  8  9  1  0  0  0  0
  8 10  1  0  0  0  0
 10 11  1  0  0  0  0
 10 12  2  0  0  0  0
 12 13  1  0  0  0  0
 13 14  1  0  0  0  0
 14 15  2  0  0  0  0
 14 16  1  0  0  0  0
 16 17  2  0  0  0  0
 17 18  1  0  0  0  0
 17 19  1  0  0  0  0
 19 20  1  0  0  0  0
 20 21  1  0  0  0  0
 20 22  2  0  0  0  0
 16 22  1  0  0  0  0
 13 23  1  0  0  0  0
 23 24  1  0  0  0  0
 24 25  2  0  0  0  0
 24 26  1  0  0  0  0
 26 27  1  0  0  0  0
 27 28  1  0  0  0  0
 28 29  1  0  0  0  0
 29 30  2  0  0  0  0
 30 31  1  0  0  0  0
 30 32  1  0  0  0  0
 32 33  1  0  0  0  0
 32 34  2  0  0  0  0
 34 35  1  0  0  0  0
 34 36  1  0  0  0  0
 36 37  1  0  0  0  0
 36 38  2  0  0  0  0
 29 38  1  0  0  0  0
 38 39  1  0  0  0  0
 28 40  1  0  0  0  0
 28 41  1  0  0  0  0
 27 42  1  0  0  0  0
 27 43  1  0  0  0  0
 26 44  1  0  0  0  0
 23 45  1  0  0  0  0
 45 46  2  0  0  0  0
 46 47  1  0  0  0  0
 46 48  1  0  0  0  0
 48 49  1  0  0  0  0
 48 50  2  0  0  0  0
 50 51  1  0  0  0  0
 50 52  1  0  0  0  0
 52 53  2  0  0  0  0
 45 53  1  0  0  0  0
 53 54  1  0  0  0  0
 23 55  1  0  0  0  0
 12 56  1  0  0  0  0
 56 57  1  0  0  0  0
 56 58  2  0  0  0  0
  7 58  1  0  0  0  0
 58 59  1  0  0  0  0
  6 60  1  0  0  0  0
  6 61  1  0  0  0  0
 61 62  1  0  0  0  0
 61 63  1  0  0  0  0
 61 64  1  0  0  0  0
 64 65  2  0  0  0  0
 64 66  1  0  0  0  0
  2 66  1  0  0  0  0
 66 67  1  0  0  0  0
M  END
> <Potency>
53.7666366521782

> <pIC50>
4.269487129769579

> <Outcome>
Inactive

> <is_active>
0

$$$$

  Mrv1921 08232120312D          

 66 70  0  0  0  0            999 V2000
    5.2883   -3.6573    0.0000 O   0  0  0  0  0  0  0  0  0  0  0  0
    5.0182   -4.4368    0.0000 C   0  0  0  0  0  0  0  0  0  0  0  0
    4.2081   -4.5927    0.0000 N   0  0  0  0  0  0  0  0  0  0  0  0
    3.6680   -3.9691    0.0000 C   0  0  0  0  0  0  0  0  0  0  0  0
    2.8579   -4.1250    0.0000 C   0  0  0  0  0  0  0  0  0  0  0  0
    2.3178   -3.5014    0.0000 C   0  0  0  0  0  0  0  0  0  0  0  0
    1.5077   -3.6573    0.0000 C   0  0  0  0  0  0  0  0  0  0  0  0
    1.2376   -4.4368    0.0000 H   0  0  0  0  0  0  0  0  0  0  0  0
    0.9676   -3.0336    0.0000 C   0  0  0  0  0  0  0  0  0  0  0  0
    0.1574   -3.1895    0.0000 H   0  0  0  0  0  0  0  0  0  0  0  0
    1.2376   -2.2541    0.0000 C   0  0  0  0  0  0  0  0  0  0  0  0
    0.6975   -1.6304    0.0000 H   0  0  0  0  0  0  0  0  0  0  0  0
    2.0477   -2.0982    0.0000 C   0  0  0  0  0  0  0  0  0  0  0  0
    2.3178   -1.3186    0.0000 F   0  0  0  0  0  0  0  0  0  0  0  0
    2.5878   -2.7218    0.0000 C   0  0  0  0  0  0  0  0  0  0  0  0
    3.3980   -2.5659    0.0000 H   0  0  0  0  0  0  0  0  0  0  0  0
    2.2667   -4.7004    0.0000 H   0  0  0  0  0  0  0  0  0  0  0  0
    2.9664   -4.9428    0.0000 H   0  0  0  0  0  0  0  0  0  0  0  0
    4.2592   -3.3937    0.0000 H   0  0  0  0  0  0  0  0  0  0  0  0
    3.5595   -3.1513    0.0000 H   0  0  0  0  0  0  0  0  0  0  0  0
    3.9381   -5.3723    0.0000 H   0  0  0  0  0  0  0  0  0  0  0  0
    5.5583   -5.0605    0.0000 C   0  0  0  0  0  0  0  0  0  0  0  0
    5.2883   -5.8400    0.0000 C   0  0  0  0  0  0  0  0  0  0  0  0
    5.8284   -6.4637    0.0000 C   0  0  0  0  0  0  0  0  0  0  0  0
    6.0984   -5.6841    0.0000 H   0  0  0  0  0  0  0  0  0  0  0  0
    5.5583   -7.2432    0.0000 C   0  0  0  0  0  0  0  0  0  0  0  0
    6.0984   -7.8668    0.0000 H   0  0  0  0  0  0  0  0  0  0  0  0
    4.7482   -7.3991    0.0000 C   0  0  0  0  0  0  0  0  0  0  0  0
    4.4782   -8.1787    0.0000 H   0  0  0  0  0  0  0  0  0  0  0  0
    4.2081   -6.7755    0.0000 N   0  0  0  0  0  0  0  0  0  0  0  0
    4.4782   -5.9959    0.0000 C   0  0  0  0  0  0  0  0  0  0  0  0
    3.6680   -6.1518    0.0000 H   0  0  0  0  0  0  0  0  0  0  0  0
    6.3685   -4.9046    0.0000 N   0  0  0  0  0  0  0  0  0  0  0  0
    6.6385   -4.1250    0.0000 C   0  0  0  0  0  0  0  0  0  0  0  0
    6.0984   -3.5014    0.0000 O   0  0  0  0  0  0  0  0  0  0  0  0
    7.4486   -3.9691    0.0000 C   0  0  0  0  0  0  0  0  0  0  0  0
    7.7987   -3.2220    0.0000 C   0  0  0  0  0  0  0  0  0  0  0  0
    7.4001   -2.4997    0.0000 H   0  0  0  0  0  0  0  0  0  0  0  0
    8.6174   -3.3241    0.0000 O   0  0  0  0  0  0  0  0  0  0  0  0
    8.7733   -4.1342    0.0000 C   0  0  0  0  0  0  0  0  0  0  0  0
    9.5203   -4.4843    0.0000 H   0  0  0  0  0  0  0  0  0  0  0  0
    8.0510   -4.5329    0.0000 N   0  0  0  0  0  0  0  0  0  0  0  0
    6.9086   -5.5282    0.0000 C   0  0  0  0  0  0  0  0  0  0  0  0
    7.7187   -5.3723    0.0000 C   0  0  0  0  0  0  0  0  0  0  0  0
    7.1923   -4.7371    0.0000 H   0  0  0  0  0  0  0  0  0  0  0  0
    8.2588   -5.9959    0.0000 C   0  0  0  0  0  0  0  0  0  0  0  0
    9.0689   -5.8400    0.0000 H   0  0  0  0  0  0  0  0  0  0  0  0
    7.9887   -6.7755    0.0000 C   0  0  0  0  0  0  0  0  0  0  0  0
    8.5288   -7.3991    0.0000 N   0  0  0  0  0  0  0  0  0  0  0  0
    9.3508   -7.3287    0.0000 C   0  0  0  0  0  0  0  0  0  0  0  0
   10.0588   -6.9052    0.0000 H   0  0  0  0  0  0  0  0  0  0  0  0
    9.3955   -6.5050    0.0000 H   0  0  0  0  0  0  0  0  0  0  0  0
    9.6718   -8.0888    0.0000 C   0  0  0  0  0  0  0  0  0  0  0  0
   10.2934   -8.6312    0.0000 H   0  0  0  0  0  0  0  0  0  0  0  0
   10.4690   -7.8767    0.0000 H   0  0  0  0  0  0  0  0  0  0  0  0
    9.0481   -8.6288    0.0000 C   0  0  0  0  0  0  0  0  0  0  0  0
    8.7243   -9.3877    0.0000 H   0  0  0  0  0  0  0  0  0  0  0  0
    9.4962   -9.3216    0.0000 H   0  0  0  0  0  0  0  0  0  0  0  0
    8.3417   -8.2026    0.0000 S   0  0  0  0  0  0  0  0  0  0  0  0
    7.8372   -8.8553    0.0000 O   0  0  0  0  0  0  0  0  0  0  0  0
    7.5221   -8.1091    0.0000 O   0  0  0  0  0  0  0  0  0  0  0  0
    7.1786   -6.9314    0.0000 C   0  0  0  0  0  0  0  0  0  0  0  0
    6.9086   -7.7109    0.0000 H   0  0  0  0  0  0  0  0  0  0  0  0
    6.6385   -6.3077    0.0000 C   0  0  0  0  0  0  0  0  0  0  0  0
    7.4486   -6.1518    0.0000 H   0  0  0  0  0  0  0  0  0  0  0  0
    4.7482   -5.2164    0.0000 H   0  0  0  0  0  0  0  0  0  0  0  0
  1  2  2  0  0  0  0
  2  3  1  0  0  0  0
  3  4  1  0  0  0  0
  4  5  1  0  0  0  0
  5  6  1  0  0  0  0
  6  7  2  0  0  0  0
  7  8  1  0  0  0  0
  7  9  1  0  0  0  0
  9 10  1  0  0  0  0
  9 11  2  0  0  0  0
 11 12  1  0  0  0  0
 11 13  1  0  0  0  0
 13 14  1  0  0  0  0
 13 15  2  0  0  0  0
  6 15  1  0  0  0  0
 15 16  1  0  0  0  0
  5 17  1  0  0  0  0
  5 18  1  0  0  0  0
  4 19  1  0  0  0  0
  4 20  1  0  0  0  0
  3 21  1  0  0  0  0
  2 22  1  0  0  0  0
 22 23  1  0  0  0  0
 23 24  2  0  0  0  0
 24 25  1  0  0  0  0
 24 26  1  0  0  0  0
 26 27  1  0  0  0  0
 26 28  2  0  0  0  0
 28 29  1  0  0  0  0
 28 30  1  0  0  0  0
 30 31  2  0  0  0  0
 23 31  1  0  0  0  0
 31 32  1  0  0  0  0
 22 33  1  0  0  0  0
 33 34  1  0  0  0  0
 34 35  2  0  0  0  0
 34 36  1  0  0  0  0
 36 37  2  0  0  0  0
 37 38  1  0  0  0  0
 37 39  1  0  0  0  0
 39 40  1  0  0  0  0
 40 41  1  0  0  0  0
 40 42  2  0  0  0  0
 36 42  1  0  0  0  0
 33 43  1  0  0  0  0
 43 44  2  0  0  0  0
 44 45  1  0  0  0  0
 44 46  1  0  0  0  0
 46 47  1  0  0  0  0
 46 48  2  0  0  0  0
 48 49  1  0  0  0  0
 49 50  1  0  0  0  0
 50 51  1  0  0  0  0
 50 52  1  0  0  0  0
 50 53  1  0  0  0  0
 53 54  1  0  0  0  0
 53 55  1  0  0  0  0
 53 56  1  0  0  0  0
 56 57  1  0  0  0  0
 56 58  1  0  0  0  0
 56 59  1  0  0  0  0
 49 59  1  0  0  0  0
 59 60  2  0  0  0  0
 59 61  2  0  0  0  0
 48 62  1  0  0  0  0
 62 63  1  0  0  0  0
 62 64  2  0  0  0  0
 43 64  1  0  0  0  0
 64 65  1  0  0  0  0
 22 66  1  0  0  0  0
M  END
> <Potency>
27.8339708498058

> <pIC50>
4.555424831928922

> <Outcome>
Inactive

> <is_active>
0

$$$$

  Mrv1921 08232120312D          

 62 66  0  0  0  0            999 V2000
   -3.8368    1.6758    0.0000 C   0  0  0  0  0  0  0  0  0  0  0  0
   -3.0332    1.4888    0.0000 C   0  0  0  0  0  0  0  0  0  0  0  0
   -2.4096    2.0288    0.0000 N   0  0  0  0  0  0  0  0  0  0  0  0
   -1.7032    1.6026    0.0000 N   0  0  0  0  0  0  0  0  0  0  0  0
   -1.8903    0.7991    0.0000 N   0  0  0  0  0  0  0  0  0  0  0  0
   -1.3502    0.1755    0.0000 C   0  0  0  0  0  0  0  0  0  0  0  0
   -0.5401    0.3314    0.0000 C   0  0  0  0  0  0  0  0  0  0  0  0
   -0.2700    1.1109    0.0000 H   0  0  0  0  0  0  0  0  0  0  0  0
    0.0000   -0.2923    0.0000 C   0  0  0  0  0  0  0  0  0  0  0  0
    0.5401   -0.9159    0.0000 H   0  0  0  0  0  0  0  0  0  0  0  0
   -0.2700   -1.0718    0.0000 C   0  0  0  0  0  0  0  0  0  0  0  0
    0.2700   -1.6954    0.0000 N   0  0  0  0  0  0  0  0  0  0  0  0
    0.0000   -2.4750    0.0000 C   0  0  0  0  0  0  0  0  0  0  0  0
    0.5401   -3.0986    0.0000 O   0  0  0  0  0  0  0  0  0  0  0  0
   -0.8101   -2.6309    0.0000 C   0  0  0  0  0  0  0  0  0  0  0  0
   -1.1602   -3.3780    0.0000 C   0  0  0  0  0  0  0  0  0  0  0  0
   -0.7616   -4.1003    0.0000 H   0  0  0  0  0  0  0  0  0  0  0  0
   -1.9788   -3.2759    0.0000 O   0  0  0  0  0  0  0  0  0  0  0  0
   -2.1348   -2.4658    0.0000 C   0  0  0  0  0  0  0  0  0  0  0  0
   -2.8818   -2.1157    0.0000 H   0  0  0  0  0  0  0  0  0  0  0  0
   -1.4125   -2.0671    0.0000 N   0  0  0  0  0  0  0  0  0  0  0  0
    1.0802   -1.5395    0.0000 C   0  0  0  0  0  0  0  0  0  0  0  0
    1.6203   -2.1632    0.0000 C   0  0  0  0  0  0  0  0  0  0  0  0
    1.3502   -2.9427    0.0000 O   0  0  0  0  0  0  0  0  0  0  0  0
    2.4304   -2.0073    0.0000 N   0  0  0  0  0  0  0  0  0  0  0  0
    2.9705   -2.6309    0.0000 C   0  0  0  0  0  0  0  0  0  0  0  0
    3.7806   -2.4750    0.0000 C   0  0  0  0  0  0  0  0  0  0  0  0
    4.3207   -3.0986    0.0000 C   0  0  0  0  0  0  0  0  0  0  0  0
    5.1308   -2.9427    0.0000 C   0  0  0  0  0  0  0  0  0  0  0  0
    5.4009   -2.1632    0.0000 H   0  0  0  0  0  0  0  0  0  0  0  0
    5.6709   -3.5664    0.0000 C   0  0  0  0  0  0  0  0  0  0  0  0
    6.4811   -3.4105    0.0000 H   0  0  0  0  0  0  0  0  0  0  0  0
    5.4009   -4.3459    0.0000 C   0  0  0  0  0  0  0  0  0  0  0  0
    5.9410   -4.9696    0.0000 H   0  0  0  0  0  0  0  0  0  0  0  0
    4.5908   -4.5018    0.0000 C   0  0  0  0  0  0  0  0  0  0  0  0
    4.3207   -5.2814    0.0000 F   0  0  0  0  0  0  0  0  0  0  0  0
    4.0507   -3.8782    0.0000 C   0  0  0  0  0  0  0  0  0  0  0  0
    3.2405   -4.0341    0.0000 H   0  0  0  0  0  0  0  0  0  0  0  0
    4.3718   -1.8996    0.0000 H   0  0  0  0  0  0  0  0  0  0  0  0
    3.6721   -1.6572    0.0000 H   0  0  0  0  0  0  0  0  0  0  0  0
    2.3793   -3.2063    0.0000 H   0  0  0  0  0  0  0  0  0  0  0  0
    3.0790   -3.4487    0.0000 H   0  0  0  0  0  0  0  0  0  0  0  0
    2.7004   -1.2277    0.0000 H   0  0  0  0  0  0  0  0  0  0  0  0
    1.3502   -0.7600    0.0000 C   0  0  0  0  0  0  0  0  0  0  0  0
    0.8101   -0.1363    0.0000 C   0  0  0  0  0  0  0  0  0  0  0  0
    0.2700    0.4873    0.0000 H   0  0  0  0  0  0  0  0  0  0  0  0
    1.0802    0.6432    0.0000 C   0  0  0  0  0  0  0  0  0  0  0  0
    0.9243    1.4533    0.0000 H   0  0  0  0  0  0  0  0  0  0  0  0
    1.8903    0.7991    0.0000 C   0  0  0  0  0  0  0  0  0  0  0  0
    2.1604    1.5787    0.0000 H   0  0  0  0  0  0  0  0  0  0  0  0
    2.4304    0.1755    0.0000 N   0  0  0  0  0  0  0  0  0  0  0  0
    2.1604   -0.6041    0.0000 C   0  0  0  0  0  0  0  0  0  0  0  0
    1.8903   -1.3836    0.0000 H   0  0  0  0  0  0  0  0  0  0  0  0
    0.8101   -2.3191    0.0000 H   0  0  0  0  0  0  0  0  0  0  0  0
   -1.0802   -1.2277    0.0000 C   0  0  0  0  0  0  0  0  0  0  0  0
   -1.8935   -1.3660    0.0000 H   0  0  0  0  0  0  0  0  0  0  0  0
   -1.6203   -0.6041    0.0000 C   0  0  0  0  0  0  0  0  0  0  0  0
   -2.3983   -0.3298    0.0000 H   0  0  0  0  0  0  0  0  0  0  0  0
   -2.7123    0.7287    0.0000 N   0  0  0  0  0  0  0  0  0  0  0  0
   -3.6497    2.4793    0.0000 H   0  0  0  0  0  0  0  0  0  0  0  0
   -4.6403    1.8629    0.0000 H   0  0  0  0  0  0  0  0  0  0  0  0
   -4.0238    0.8723    0.0000 H   0  0  0  0  0  0  0  0  0  0  0  0
  1  2  1  0  0  0  0
  2  3  1  0  0  0  0
  3  4  2  0  0  0  0
  4  5  1  0  0  0  0
  5  6  1  0  0  0  0
  6  7  2  0  0  0  0
  7  8  1  0  0  0  0
  7  9  1  0  0  0  0
  9 10  1  0  0  0  0
  9 11  2  0  0  0  0
 11 12  1  0  0  0  0
 12 13  1  0  0  0  0
 13 14  2  0  0  0  0
 13 15  1  0  0  0  0
 15 16  2  0  0  0  0
 16 17  1  0  0  0  0
 16 18  1  0  0  0  0
 18 19  1  0  0  0  0
 19 20  1  0  0  0  0
 19 21  2  0  0  0  0
 15 21  1  0  0  0  0
 12 22  1  0  0  0  0
 22 23  1  0  0  0  0
 23 24  2  0  0  0  0
 23 25  1  0  0  0  0
 25 26  1  0  0  0  0
 26 27  1  0  0  0  0
 27 28  1  0  0  0  0
 28 29  2  0  0  0  0
 29 30  1  0  0  0  0
 29 31  1  0  0  0  0
 31 32  1  0  0  0  0
 31 33  2  0  0  0  0
 33 34  1  0  0  0  0
 33 35  1  0  0  0  0
 35 36  1  0  0  0  0
 35 37  2  0  0  0  0
 28 37  1  0  0  0  0
 37 38  1  0  0  0  0
 27 39  1  0  0  0  0
 27 40  1  0  0  0  0
 26 41  1  0  0  0  0
 26 42  1  0  0  0  0
 25 43  1  0  0  0  0
 22 44  1  0  0  0  0
 44 45  2  0  0  0  0
 45 46  1  0  0  0  0
 45 47  1  0  0  0  0
 47 48  1  0  0  0  0
 47 49  2  0  0  0  0
 49 50  1  0  0  0  0
 49 51  1  0  0  0  0
 51 52  2  0  0  0  0
 44 52  1  0  0  0  0
 52 53  1  0  0  0  0
 22 54  1  0  0  0  0
 11 55  1  0  0  0  0
 55 56  1  0  0  0  0
 55 57  2  0  0  0  0
  6 57  1  0  0  0  0
 57 58  1  0  0  0  0
  5 59  1  0  0  0  0
  2 59  2  0  0  0  0
  1 60  1  0  0  0  0
  1 61  1  0  0  0  0
  1 62  1  0  0  0  0
M  END
> <Potency>
33.2475886573389

> <pIC50>
4.478239847226652

> <Outcome>
Inactive

> <is_active>
0

$$$$

  Mrv1921 08232120312D          

 62 66  0  0  0  0            999 V2000
    5.2883   -3.6573    0.0000 O   0  0  0  0  0  0  0  0  0  0  0  0
    5.0182   -4.4368    0.0000 C   0  0  0  0  0  0  0  0  0  0  0  0
    4.2081   -4.5927    0.0000 N   0  0  0  0  0  0  0  0  0  0  0  0
    3.6680   -3.9691    0.0000 C   0  0  0  0  0  0  0  0  0  0  0  0
    2.8579   -4.1250    0.0000 C   0  0  0  0  0  0  0  0  0  0  0  0
    2.3178   -3.5014    0.0000 C   0  0  0  0  0  0  0  0  0  0  0  0
    1.5077   -3.6573    0.0000 C   0  0  0  0  0  0  0  0  0  0  0  0
    1.2376   -4.4368    0.0000 H   0  0  0  0  0  0  0  0  0  0  0  0
    0.9676   -3.0336    0.0000 C   0  0  0  0  0  0  0  0  0  0  0  0
    0.1574   -3.1895    0.0000 H   0  0  0  0  0  0  0  0  0  0  0  0
    1.2376   -2.2541    0.0000 C   0  0  0  0  0  0  0  0  0  0  0  0
    0.6975   -1.6304    0.0000 H   0  0  0  0  0  0  0  0  0  0  0  0
    2.0477   -2.0982    0.0000 C   0  0  0  0  0  0  0  0  0  0  0  0
    2.3178   -1.3186    0.0000 F   0  0  0  0  0  0  0  0  0  0  0  0
    2.5878   -2.7218    0.0000 C   0  0  0  0  0  0  0  0  0  0  0  0
    3.3980   -2.5659    0.0000 H   0  0  0  0  0  0  0  0  0  0  0  0
    2.2667   -4.7004    0.0000 H   0  0  0  0  0  0  0  0  0  0  0  0
    2.9664   -4.9428    0.0000 H   0  0  0  0  0  0  0  0  0  0  0  0
    4.2592   -3.3937    0.0000 H   0  0  0  0  0  0  0  0  0  0  0  0
    3.5595   -3.1513    0.0000 H   0  0  0  0  0  0  0  0  0  0  0  0
    3.9381   -5.3723    0.0000 H   0  0  0  0  0  0  0  0  0  0  0  0
    5.5583   -5.0605    0.0000 C   0  0  0  0  0  0  0  0  0  0  0  0
    5.2883   -5.8400    0.0000 C   0  0  0  0  0  0  0  0  0  0  0  0
    5.8284   -6.4637    0.0000 C   0  0  0  0  0  0  0  0  0  0  0  0
    6.0984   -5.6841    0.0000 H   0  0  0  0  0  0  0  0  0  0  0  0
    5.5583   -7.2432    0.0000 C   0  0  0  0  0  0  0  0  0  0  0  0
    6.0984   -7.8668    0.0000 H   0  0  0  0  0  0  0  0  0  0  0  0
    4.7482   -7.3991    0.0000 C   0  0  0  0  0  0  0  0  0  0  0  0
    4.4782   -8.1787    0.0000 H   0  0  0  0  0  0  0  0  0  0  0  0
    4.2081   -6.7755    0.0000 N   0  0  0  0  0  0  0  0  0  0  0  0
    4.4782   -5.9959    0.0000 C   0  0  0  0  0  0  0  0  0  0  0  0
    3.6680   -6.1518    0.0000 H   0  0  0  0  0  0  0  0  0  0  0  0
    6.3685   -4.9046    0.0000 N   0  0  0  0  0  0  0  0  0  0  0  0
    6.6385   -4.1250    0.0000 C   0  0  0  0  0  0  0  0  0  0  0  0
    6.0984   -3.5014    0.0000 O   0  0  0  0  0  0  0  0  0  0  0  0
    7.4486   -3.9691    0.0000 C   0  0  0  0  0  0  0  0  0  0  0  0
    7.7987   -3.2220    0.0000 C   0  0  0  0  0  0  0  0  0  0  0  0
    7.4001   -2.4997    0.0000 H   0  0  0  0  0  0  0  0  0  0  0  0
    8.6174   -3.3241    0.0000 O   0  0  0  0  0  0  0  0  0  0  0  0
    8.7733   -4.1342    0.0000 C   0  0  0  0  0  0  0  0  0  0  0  0
    9.5203   -4.4843    0.0000 H   0  0  0  0  0  0  0  0  0  0  0  0
    8.0510   -4.5329    0.0000 N   0  0  0  0  0  0  0  0  0  0  0  0
    6.9086   -5.5282    0.0000 C   0  0  0  0  0  0  0  0  0  0  0  0
    7.7187   -5.3723    0.0000 C   0  0  0  0  0  0  0  0  0  0  0  0
    7.1923   -4.7371    0.0000 H   0  0  0  0  0  0  0  0  0  0  0  0
    8.2588   -5.9959    0.0000 C   0  0  0  0  0  0  0  0  0  0  0  0
    9.0689   -5.8400    0.0000 H   0  0  0  0  0  0  0  0  0  0  0  0
    7.9887   -6.7755    0.0000 C   0  0  0  0  0  0  0  0  0  0  0  0
    8.5288   -7.3991    0.0000 N   0  0  0  0  0  0  0  0  0  0  0  0
    9.3508   -7.3287    0.0000 C   0  0  0  0  0  0  0  0  0  0  0  0
    9.7770   -6.6224    0.0000 H   0  0  0  0  0  0  0  0  0  0  0  0
    9.6718   -8.0888    0.0000 C   0  0  0  0  0  0  0  0  0  0  0  0
   10.4753   -8.2758    0.0000 H   0  0  0  0  0  0  0  0  0  0  0  0
    9.0481   -8.6288    0.0000 N   0  0  0  0  0  0  0  0  0  0  0  0
    9.1185   -9.4508    0.0000 H   0  0  0  0  0  0  0  0  0  0  0  0
    8.3417   -8.2026    0.0000 C   0  0  0  0  0  0  0  0  0  0  0  0
    7.5817   -8.5236    0.0000 O   0  0  0  0  0  0  0  0  0  0  0  0
    7.1786   -6.9314    0.0000 C   0  0  0  0  0  0  0  0  0  0  0  0
    6.9086   -7.7109    0.0000 H   0  0  0  0  0  0  0  0  0  0  0  0
    6.6385   -6.3077    0.0000 C   0  0  0  0  0  0  0  0  0  0  0  0
    7.4486   -6.1518    0.0000 H   0  0  0  0  0  0  0  0  0  0  0  0
    4.7482   -5.2164    0.0000 H   0  0  0  0  0  0  0  0  0  0  0  0
  1  2  2  0  0  0  0
  2  3  1  0  0  0  0
  3  4  1  0  0  0  0
  4  5  1  0  0  0  0
  5  6  1  0  0  0  0
  6  7  2  0  0  0  0
  7  8  1  0  0  0  0
  7  9  1  0  0  0  0
  9 10  1  0  0  0  0
  9 11  2  0  0  0  0
 11 12  1  0  0  0  0
 11 13  1  0  0  0  0
 13 14  1  0  0  0  0
 13 15  2  0  0  0  0
  6 15  1  0  0  0  0
 15 16  1  0  0  0  0
  5 17  1  0  0  0  0
  5 18  1  0  0  0  0
  4 19  1  0  0  0  0
  4 20  1  0  0  0  0
  3 21  1  0  0  0  0
  2 22  1  0  0  0  0
 22 23  1  0  0  0  0
 23 24  2  0  0  0  0
 24 25  1  0  0  0  0
 24 26  1  0  0  0  0
 26 27  1  0  0  0  0
 26 28  2  0  0  0  0
 28 29  1  0  0  0  0
 28 30  1  0  0  0  0
 30 31  2  0  0  0  0
 23 31  1  0  0  0  0
 31 32  1  0  0  0  0
 22 33  1  0  0  0  0
 33 34  1  0  0  0  0
 34 35  2  0  0  0  0
 34 36  1  0  0  0  0
 36 37  2  0  0  0  0
 37 38  1  0  0  0  0
 37 39  1  0  0  0  0
 39 40  1  0  0  0  0
 40 41  1  0  0  0  0
 40 42  2  0  0  0  0
 36 42  1  0  0  0  0
 33 43  1  0  0  0  0
 43 44  2  0  0  0  0
 44 45  1  0  0  0  0
 44 46  1  0  0  0  0
 46 47  1  0  0  0  0
 46 48  2  0  0  0  0
 48 49  1  0  0  0  0
 49 50  4  0  0  0  0
 50 51  1  0  0  0  0
 50 52  4  0  0  0  0
 52 53  1  0  0  0  0
 52 54  4  0  0  0  0
 54 55  1  0  0  0  0
 54 56  4  0  0  0  0
 49 56  4  0  0  0  0
 56 57  2  0  0  0  0
 48 58  1  0  0  0  0
 58 59  1  0  0  0  0
 58 60  2  0  0  0  0
 43 60  1  0  0  0  0
 60 61  1  0  0  0  0
 22 62  1  0  0  0  0
M  END
> <Potency>
45.1025785713487

> <pIC50>
4.345798628248526

> <Outcome>
Inactive

> <is_active>
0

$$$$

  Mrv1921 08232120312D          

 69 72  0  0  0  0            999 V2000
   -1.0850   -5.2090    0.0000 C   0  0  0  0  0  0  0  0  0  0  0  0
   -0.4614   -5.7491    0.0000 C   0  0  0  0  0  0  0  0  0  0  0  0
    0.1623   -6.2892    0.0000 C   0  0  0  0  0  0  0  0  0  0  0  0
    0.5318   -7.0268    0.0000 H   0  0  0  0  0  0  0  0  0  0  0  0
    0.9852   -6.2301    0.0000 H   0  0  0  0  0  0  0  0  0  0  0  0
    0.4226   -5.5064    0.0000 H   0  0  0  0  0  0  0  0  0  0  0  0
    0.0787   -5.1255    0.0000 C   0  0  0  0  0  0  0  0  0  0  0  0
   -0.1913   -4.3459    0.0000 C   0  0  0  0  0  0  0  0  0  0  0  0
   -0.5499   -3.6029    0.0000 H   0  0  0  0  0  0  0  0  0  0  0  0
    0.3488   -3.7223    0.0000 C   0  0  0  0  0  0  0  0  0  0  0  0
    0.8752   -3.0871    0.0000 H   0  0  0  0  0  0  0  0  0  0  0  0
    1.1589   -3.8782    0.0000 C   0  0  0  0  0  0  0  0  0  0  0  0
    1.6990   -3.2546    0.0000 N   0  0  0  0  0  0  0  0  0  0  0  0
    1.4289   -2.4750    0.0000 C   0  0  0  0  0  0  0  0  0  0  0  0
    1.9690   -1.8514    0.0000 O   0  0  0  0  0  0  0  0  0  0  0  0
    0.6188   -2.3191    0.0000 C   0  0  0  0  0  0  0  0  0  0  0  0
    0.2688   -1.5720    0.0000 C   0  0  0  0  0  0  0  0  0  0  0  0
    0.6674   -0.8497    0.0000 H   0  0  0  0  0  0  0  0  0  0  0  0
   -0.5499   -1.6741    0.0000 O   0  0  0  0  0  0  0  0  0  0  0  0
   -0.7058   -2.4842    0.0000 C   0  0  0  0  0  0  0  0  0  0  0  0
   -1.4529   -2.8343    0.0000 H   0  0  0  0  0  0  0  0  0  0  0  0
    0.0165   -2.8829    0.0000 N   0  0  0  0  0  0  0  0  0  0  0  0
    2.5091   -3.4105    0.0000 C   0  0  0  0  0  0  0  0  0  0  0  0
    3.0492   -2.7868    0.0000 C   0  0  0  0  0  0  0  0  0  0  0  0
    2.7792   -2.0073    0.0000 O   0  0  0  0  0  0  0  0  0  0  0  0
    3.8593   -2.9427    0.0000 N   0  0  0  0  0  0  0  0  0  0  0  0
    4.3994   -2.3191    0.0000 C   0  0  0  0  0  0  0  0  0  0  0  0
    5.2096   -2.4750    0.0000 C   0  0  0  0  0  0  0  0  0  0  0  0
    5.7497   -1.8514    0.0000 C   0  0  0  0  0  0  0  0  0  0  0  0
    5.4796   -1.0718    0.0000 C   0  0  0  0  0  0  0  0  0  0  0  0
    4.6695   -0.9159    0.0000 H   0  0  0  0  0  0  0  0  0  0  0  0
    6.0197   -0.4482    0.0000 C   0  0  0  0  0  0  0  0  0  0  0  0
    5.7497    0.3314    0.0000 H   0  0  0  0  0  0  0  0  0  0  0  0
    6.8298   -0.6041    0.0000 C   0  0  0  0  0  0  0  0  0  0  0  0
    7.3699    0.0196    0.0000 H   0  0  0  0  0  0  0  0  0  0  0  0
    7.0999   -1.3836    0.0000 C   0  0  0  0  0  0  0  0  0  0  0  0
    7.9100   -1.5395    0.0000 F   0  0  0  0  0  0  0  0  0  0  0  0
    6.5598   -2.0073    0.0000 C   0  0  0  0  0  0  0  0  0  0  0  0
    6.8298   -2.7868    0.0000 H   0  0  0  0  0  0  0  0  0  0  0  0
    5.1010   -3.2928    0.0000 H   0  0  0  0  0  0  0  0  0  0  0  0
    5.8007   -3.0504    0.0000 H   0  0  0  0  0  0  0  0  0  0  0  0
    4.5080   -1.5013    0.0000 H   0  0  0  0  0  0  0  0  0  0  0  0
    3.8083   -1.7437    0.0000 H   0  0  0  0  0  0  0  0  0  0  0  0
    4.1294   -3.7223    0.0000 H   0  0  0  0  0  0  0  0  0  0  0  0
    2.7792   -4.1900    0.0000 C   0  0  0  0  0  0  0  0  0  0  0  0
    3.5893   -4.3459    0.0000 C   0  0  0  0  0  0  0  0  0  0  0  0
    3.3193   -3.5664    0.0000 H   0  0  0  0  0  0  0  0  0  0  0  0
    3.8593   -5.1255    0.0000 C   0  0  0  0  0  0  0  0  0  0  0  0
    4.6695   -5.2814    0.0000 H   0  0  0  0  0  0  0  0  0  0  0  0
    3.3193   -5.7491    0.0000 C   0  0  0  0  0  0  0  0  0  0  0  0
    3.5893   -6.5287    0.0000 H   0  0  0  0  0  0  0  0  0  0  0  0
    2.5091   -5.5932    0.0000 N   0  0  0  0  0  0  0  0  0  0  0  0
    2.2391   -4.8137    0.0000 C   0  0  0  0  0  0  0  0  0  0  0  0
    1.9690   -4.0341    0.0000 H   0  0  0  0  0  0  0  0  0  0  0  0
    2.2391   -2.6309    0.0000 H   0  0  0  0  0  0  0  0  0  0  0  0
    1.4289   -4.6577    0.0000 C   0  0  0  0  0  0  0  0  0  0  0  0
    1.6990   -5.4373    0.0000 H   0  0  0  0  0  0  0  0  0  0  0  0
    0.8889   -5.2814    0.0000 C   0  0  0  0  0  0  0  0  0  0  0  0
    0.6188   -4.5018    0.0000 H   0  0  0  0  0  0  0  0  0  0  0  0
   -1.0015   -6.3728    0.0000 S   0  0  0  0  0  0  0  0  0  0  0  0
   -1.5415   -6.9964    0.0000 C   0  0  0  0  0  0  0  0  0  0  0  0
   -2.1652   -6.4563    0.0000 H   0  0  0  0  0  0  0  0  0  0  0  0
   -2.0816   -7.6200    0.0000 H   0  0  0  0  0  0  0  0  0  0  0  0
   -0.9179   -7.5365    0.0000 H   0  0  0  0  0  0  0  0  0  0  0  0
   -1.6251   -5.8327    0.0000 O   0  0  0  0  0  0  0  0  0  0  0  0
   -0.3778   -6.9128    0.0000 O   0  0  0  0  0  0  0  0  0  0  0  0
   -0.3474   -4.8395    0.0000 H   0  0  0  0  0  0  0  0  0  0  0  0
   -1.1441   -4.3861    0.0000 H   0  0  0  0  0  0  0  0  0  0  0  0
   -1.8679   -4.9487    0.0000 H   0  0  0  0  0  0  0  0  0  0  0  0
  1  2  1  0  0  0  0
  2  3  1  0  0  0  0
  3  4  1  0  0  0  0
  3  5  1  0  0  0  0
  3  6  1  0  0  0  0
  2  7  1  0  0  0  0
  7  8  2  0  0  0  0
  8  9  1  0  0  0  0
  8 10  1  0  0  0  0
 10 11  1  0  0  0  0
 10 12  2  0  0  0  0
 12 13  1  0  0  0  0
 13 14  1  0  0  0  0
 14 15  2  0  0  0  0
 14 16  1  0  0  0  0
 16 17  2  0  0  0  0
 17 18  1  0  0  0  0
 17 19  1  0  0  0  0
 19 20  1  0  0  0  0
 20 21  1  0  0  0  0
 20 22  2  0  0  0  0
 16 22  1  0  0  0  0
 13 23  1  0  0  0  0
 23 24  1  0  0  0  0
 24 25  2  0  0  0  0
 24 26  1  0  0  0  0
 26 27  1  0  0  0  0
 27 28  1  0  0  0  0
 28 29  1  0  0  0  0
 29 30  2  0  0  0  0
 30 31  1  0  0  0  0
 30 32  1  0  0  0  0
 32 33  1  0  0  0  0
 32 34  2  0  0  0  0
 34 35  1  0  0  0  0
 34 36  1  0  0  0  0
 36 37  1  0  0  0  0
 36 38  2  0  0  0  0
 29 38  1  0  0  0  0
 38 39  1  0  0  0  0
 28 40  1  0  0  0  0
 28 41  1  0  0  0  0
 27 42  1  0  0  0  0
 27 43  1  0  0  0  0
 26 44  1  0  0  0  0
 23 45  1  0  0  0  0
 45 46  2  0  0  0  0
 46 47  1  0  0  0  0
 46 48  1  0  0  0  0
 48 49  1  0  0  0  0
 48 50  2  0  0  0  0
 50 51  1  0  0  0  0
 50 52  1  0  0  0  0
 52 53  2  0  0  0  0
 45 53  1  0  0  0  0
 53 54  1  0  0  0  0
 23 55  1  0  0  0  0
 12 56  1  0  0  0  0
 56 57  1  0  0  0  0
 56 58  2  0  0  0  0
  7 58  1  0  0  0  0
 58 59  1  0  0  0  0
  2 60  1  0  0  0  0
 60 61  1  0  0  0  0
 61 62  1  0  0  0  0
 61 63  1  0  0  0  0
 61 64  1  0  0  0  0
 60 65  2  0  0  0  0
 60 66  2  0  0  0  0
  1 67  1  0  0  0  0
  1 68  1  0  0  0  0
  1 69  1  0  0  0  0
M  END
> <Potency>
67.8374830751673

> <pIC50>
4.168530273764962

> <Outcome>
Inactive

> <is_active>
0

$$$$

  Mrv1921 08232120312D          

 65 69  0  0  0  0            999 V2000
    3.8886   -2.5452    0.0000 O   0  0  0  0  0  0  0  0  0  0  0  0
    3.6064   -1.7700    0.0000 C   0  0  0  0  0  0  0  0  0  0  0  0
    4.1367   -1.1380    0.0000 N   0  0  0  0  0  0  0  0  0  0  0  0
    3.8545   -0.3627    0.0000 C   0  0  0  0  0  0  0  0  0  0  0  0
    4.3848    0.2692    0.0000 C   0  0  0  0  0  0  0  0  0  0  0  0
    4.9151   -0.3627    0.0000 C   0  0  0  0  0  0  0  0  0  0  0  0
    4.6330   -1.1380    0.0000 O   0  0  0  0  0  0  0  0  0  0  0  0
    5.7276   -0.2195    0.0000 N   0  0  0  0  0  0  0  0  0  0  0  0
    6.2579   -0.8515    0.0000 C   0  0  0  0  0  0  0  0  0  0  0  0
    7.0704   -0.7082    0.0000 C   0  0  0  0  0  0  0  0  0  0  0  0
    7.7121   -0.1898    0.0000 H   0  0  0  0  0  0  0  0  0  0  0  0
    7.6007   -1.3402    0.0000 N   0  0  0  0  0  0  0  0  0  0  0  0
    7.3185   -2.1154    0.0000 C   0  0  0  0  0  0  0  0  0  0  0  0
    7.8488   -2.7474    0.0000 H   0  0  0  0  0  0  0  0  0  0  0  0
    6.5060   -2.2587    0.0000 C   0  0  0  0  0  0  0  0  0  0  0  0
    6.2239   -3.0340    0.0000 C   0  0  0  0  0  0  0  0  0  0  0  0
    5.4114   -3.1772    0.0000 C   0  0  0  0  0  0  0  0  0  0  0  0
    4.8811   -2.5452    0.0000 C   0  0  0  0  0  0  0  0  0  0  0  0
    5.1633   -1.7700    0.0000 C   0  0  0  0  0  0  0  0  0  0  0  0
    5.4454   -0.9947    0.0000 H   0  0  0  0  0  0  0  0  0  0  0  0
    5.9757   -1.6267    0.0000 C   0  0  0  0  0  0  0  0  0  0  0  0
    4.2093   -3.0241    0.0000 H   0  0  0  0  0  0  0  0  0  0  0  0
    5.1292   -3.9525    0.0000 H   0  0  0  0  0  0  0  0  0  0  0  0
    6.7542   -3.6659    0.0000 H   0  0  0  0  0  0  0  0  0  0  0  0
    6.5245   -0.0060    0.0000 H   0  0  0  0  0  0  0  0  0  0  0  0
    3.6704    0.6817    0.0000 C   0  0  0  0  0  0  0  0  0  0  0  0
    2.8973    0.9698    0.0000 H   0  0  0  0  0  0  0  0  0  0  0  0
    4.3848    1.0942    0.0000 H   0  0  0  0  0  0  0  0  0  0  0  0
    3.6704    1.5067    0.0000 C   0  0  0  0  0  0  0  0  0  0  0  0
    3.5008    2.3141    0.0000 H   0  0  0  0  0  0  0  0  0  0  0  0
    3.0122    2.0041    0.0000 H   0  0  0  0  0  0  0  0  0  0  0  0
    4.3848    1.9192    0.0000 O   0  0  0  0  0  0  0  0  0  0  0  0
    5.0993    1.5067    0.0000 C   0  0  0  0  0  0  0  0  0  0  0  0
    5.8138    1.9192    0.0000 C   0  0  0  0  0  0  0  0  0  0  0  0
    6.5282    1.5067    0.0000 C   0  0  0  0  0  0  0  0  0  0  0  0
    6.5282    0.6817    0.0000 C   0  0  0  0  0  0  0  0  0  0  0  0
    7.2427    0.2692    0.0000 Cl  0  0  0  0  0  0  0  0  0  0  0  0
    5.8138    0.2692    0.0000 C   0  0  0  0  0  0  0  0  0  0  0  0
    5.0661   -0.0794    0.0000 H   0  0  0  0  0  0  0  0  0  0  0  0
    5.0993    0.6817    0.0000 C   0  0  0  0  0  0  0  0  0  0  0  0
    7.2427    1.9192    0.0000 H   0  0  0  0  0  0  0  0  0  0  0  0
    5.8138    2.7442    0.0000 H   0  0  0  0  0  0  0  0  0  0  0  0
    3.1928    0.1299    0.0000 H   0  0  0  0  0  0  0  0  0  0  0  0
    3.0642   -0.5994    0.0000 H   0  0  0  0  0  0  0  0  0  0  0  0
    4.4853   -1.8857    0.0000 H   0  0  0  0  0  0  0  0  0  0  0  0
    2.7939   -1.6267    0.0000 C   0  0  0  0  0  0  0  0  0  0  0  0
    2.5118   -0.8515    0.0000 C   0  0  0  0  0  0  0  0  0  0  0  0
    2.4074   -0.0331    0.0000 H   0  0  0  0  0  0  0  0  0  0  0  0
    1.9815   -1.4835    0.0000 H   0  0  0  0  0  0  0  0  0  0  0  0
    1.6993   -0.7082    0.0000 O   0  0  0  0  0  0  0  0  0  0  0  0
    1.1690   -1.3402    0.0000 C   0  0  0  0  0  0  0  0  0  0  0  0
    0.5072   -0.8475    0.0000 H   0  0  0  0  0  0  0  0  0  0  0  0
    0.3786   -1.5768    0.0000 H   0  0  0  0  0  0  0  0  0  0  0  0
    1.4512   -2.1154    0.0000 C   0  0  0  0  0  0  0  0  0  0  0  0
    0.6936   -2.4422    0.0000 H   0  0  0  0  0  0  0  0  0  0  0  0
    1.2609   -2.9182    0.0000 H   0  0  0  0  0  0  0  0  0  0  0  0
    2.2636   -2.2587    0.0000 N   0  0  0  0  0  0  0  0  0  0  0  0
    2.5458   -3.0340    0.0000 C   0  0  0  0  0  0  0  0  0  0  0  0
    2.0155   -3.6659    0.0000 C   0  0  0  0  0  0  0  0  0  0  0  0
    1.4852   -4.2979    0.0000 F   0  0  0  0  0  0  0  0  0  0  0  0
    1.3835   -3.1356    0.0000 F   0  0  0  0  0  0  0  0  0  0  0  0
    2.6475   -4.1962    0.0000 F   0  0  0  0  0  0  0  0  0  0  0  0
    2.9583   -3.7484    0.0000 H   0  0  0  0  0  0  0  0  0  0  0  0
    3.3210   -3.3161    0.0000 H   0  0  0  0  0  0  0  0  0  0  0  0
    3.0761   -2.4020    0.0000 H   0  0  0  0  0  0  0  0  0  0  0  0
  1  2  2  0  0  0  0
  2  3  1  0  0  0  0
  3  4  1  0  0  0  0
  4  5  1  0  0  0  0
  5  6  1  0  0  0  0
  6  7  2  0  0  0  0
  6  8  1  0  0  0  0
  8  9  1  0  0  0  0
  9 10  2  0  0  0  0
 10 11  1  0  0  0  0
 10 12  1  0  0  0  0
 12 13  2  0  0  0  0
 13 14  1  0  0  0  0
 13 15  1  0  0  0  0
 15 16  2  0  0  0  0
 16 17  1  0  0  0  0
 17 18  2  0  0  0  0
 18 19  1  0  0  0  0
 19 20  1  0  0  0  0
 19 21  2  0  0  0  0
  9 21  1  0  0  0  0
 15 21  1  0  0  0  0
 18 22  1  0  0  0  0
 17 23  1  0  0  0  0
 16 24  1  0  0  0  0
  8 25  1  0  0  0  0
  5 26  1  0  0  0  0
 26 27  1  0  0  0  0
 26 28  1  0  0  0  0
 26 29  1  0  0  0  0
 29 30  1  0  0  0  0
 29 31  1  0  0  0  0
 29 32  1  0  0  0  0
 32 33  1  0  0  0  0
 33 34  2  0  0  0  0
 34 35  1  0  0  0  0
 35 36  2  0  0  0  0
 36 37  1  0  0  0  0
 36 38  1  0  0  0  0
 38 39  1  0  0  0  0
 38 40  2  0  0  0  0
  5 40  1  0  0  0  0
 33 40  1  0  0  0  0
 35 41  1  0  0  0  0
 34 42  1  0  0  0  0
  4 43  1  0  0  0  0
  4 44  1  0  0  0  0
  3 45  1  0  0  0  0
  2 46  1  0  0  0  0
 46 47  1  0  0  0  0
 47 48  1  0  0  0  0
 47 49  1  0  0  0  0
 47 50  1  0  0  0  0
 50 51  1  0  0  0  0
 51 52  1  0  0  0  0
 51 53  1  0  0  0  0
 51 54  1  0  0  0  0
 54 55  1  0  0  0  0
 54 56  1  0  0  0  0
 54 57  1  0  0  0  0
 46 57  1  0  0  0  0
 57 58  1  0  0  0  0
 58 59  1  0  0  0  0
 59 60  1  0  0  0  0
 59 61  1  0  0  0  0
 59 62  1  0  0  0  0
 58 63  1  0  0  0  0
 58 64  1  0  0  0  0
 46 65  1  0  0  0  0
M  END
> <Potency>
21.5732763348394

> <pIC50>
4.666083893558158

> <Outcome>
Inactive

> <is_active>
0

$$$$

  Mrv1921 08232120312D          

 48 51  0  0  0  0            999 V2000
    3.8998   -0.6445    0.0000 C   0  0  0  0  0  0  0  0  0  0  0  0
    3.7565   -1.4570    0.0000 S   0  0  0  0  0  0  0  0  0  0  0  0
    3.6133   -2.2695    0.0000 O   0  0  0  0  0  0  0  0  0  0  0  0
    2.9441   -1.3137    0.0000 O   0  0  0  0  0  0  0  0  0  0  0  0
    4.5690   -1.6002    0.0000 C   0  0  0  0  0  0  0  0  0  0  0  0
    5.0993   -0.9683    0.0000 C   0  0  0  0  0  0  0  0  0  0  0  0
    5.6296   -1.6002    0.0000 C   0  0  0  0  0  0  0  0  0  0  0  0
    6.4421   -1.4570    0.0000 O   0  0  0  0  0  0  0  0  0  0  0  0
    5.3474   -2.3755    0.0000 N   0  0  0  0  0  0  0  0  0  0  0  0
    5.8777   -3.0075    0.0000 C   0  0  0  0  0  0  0  0  0  0  0  0
    6.6902   -2.8642    0.0000 C   0  0  0  0  0  0  0  0  0  0  0  0
    6.9724   -2.0890    0.0000 H   0  0  0  0  0  0  0  0  0  0  0  0
    7.2205   -3.4962    0.0000 N   0  0  0  0  0  0  0  0  0  0  0  0
    6.9383   -4.2715    0.0000 C   0  0  0  0  0  0  0  0  0  0  0  0
    7.4686   -4.9034    0.0000 H   0  0  0  0  0  0  0  0  0  0  0  0
    6.1259   -4.4147    0.0000 C   0  0  0  0  0  0  0  0  0  0  0  0
    5.8437   -5.1900    0.0000 C   0  0  0  0  0  0  0  0  0  0  0  0
    5.0312   -5.3332    0.0000 C   0  0  0  0  0  0  0  0  0  0  0  0
    4.5009   -4.7012    0.0000 C   0  0  0  0  0  0  0  0  0  0  0  0
    4.7831   -3.9260    0.0000 C   0  0  0  0  0  0  0  0  0  0  0  0
    3.9995   -3.6679    0.0000 H   0  0  0  0  0  0  0  0  0  0  0  0
    5.5956   -3.7827    0.0000 C   0  0  0  0  0  0  0  0  0  0  0  0
    3.6885   -4.8445    0.0000 H   0  0  0  0  0  0  0  0  0  0  0  0
    4.7491   -6.1085    0.0000 H   0  0  0  0  0  0  0  0  0  0  0  0
    6.3740   -5.8219    0.0000 H   0  0  0  0  0  0  0  0  0  0  0  0
    5.0177   -3.1318    0.0000 H   0  0  0  0  0  0  0  0  0  0  0  0
    4.3848   -0.5558    0.0000 C   0  0  0  0  0  0  0  0  0  0  0  0
    4.2442   -1.3687    0.0000 H   0  0  0  0  0  0  0  0  0  0  0  0
    5.0993   -0.1433    0.0000 H   0  0  0  0  0  0  0  0  0  0  0  0
    4.3848    0.2692    0.0000 C   0  0  0  0  0  0  0  0  0  0  0  0
    4.3964    1.0942    0.0000 H   0  0  0  0  0  0  0  0  0  0  0  0
    3.6823    0.7017    0.0000 H   0  0  0  0  0  0  0  0  0  0  0  0
    5.0993    0.6817    0.0000 O   0  0  0  0  0  0  0  0  0  0  0  0
    5.8138    0.2692    0.0000 C   0  0  0  0  0  0  0  0  0  0  0  0
    6.5282    0.6817    0.0000 C   0  0  0  0  0  0  0  0  0  0  0  0
    7.2427    0.2692    0.0000 C   0  0  0  0  0  0  0  0  0  0  0  0
    7.2427   -0.5558    0.0000 C   0  0  0  0  0  0  0  0  0  0  0  0
    7.9572   -0.9683    0.0000 Cl  0  0  0  0  0  0  0  0  0  0  0  0
    6.5282   -0.9683    0.0000 C   0  0  0  0  0  0  0  0  0  0  0  0
    7.2040   -1.4415    0.0000 H   0  0  0  0  0  0  0  0  0  0  0  0
    5.8138   -0.5558    0.0000 C   0  0  0  0  0  0  0  0  0  0  0  0
    7.9572    0.6817    0.0000 H   0  0  0  0  0  0  0  0  0  0  0  0
    6.5282    1.5067    0.0000 H   0  0  0  0  0  0  0  0  0  0  0  0
    4.4732   -2.4197    0.0000 H   0  0  0  0  0  0  0  0  0  0  0  0
    5.1691   -2.1664    0.0000 H   0  0  0  0  0  0  0  0  0  0  0  0
    4.1441    0.1435    0.0000 H   0  0  0  0  0  0  0  0  0  0  0  0
    3.3145   -0.0630    0.0000 H   0  0  0  0  0  0  0  0  0  0  0  0
    3.1134   -0.8939    0.0000 H   0  0  0  0  0  0  0  0  0  0  0  0
  1  2  1  0  0  0  0
  2  3  2  0  0  0  0
  2  4  2  0  0  0  0
  2  5  1  0  0  0  0
  5  6  1  0  0  0  0
  6  7  1  0  0  0  0
  7  8  2  0  0  0  0
  7  9  1  0  0  0  0
  9 10  1  0  0  0  0
 10 11  2  0  0  0  0
 11 12  1  0  0  0  0
 11 13  1  0  0  0  0
 13 14  2  0  0  0  0
 14 15  1  0  0  0  0
 14 16  1  0  0  0  0
 16 17  2  0  0  0  0
 17 18  1  0  0  0  0
 18 19  2  0  0  0  0
 19 20  1  0  0  0  0
 20 21  1  0  0  0  0
 20 22  2  0  0  0  0
 10 22  1  0  0  0  0
 16 22  1  0  0  0  0
 19 23  1  0  0  0  0
 18 24  1  0  0  0  0
 17 25  1  0  0  0  0
  9 26  1  0  0  0  0
  6 27  1  0  0  0  0
 27 28  1  0  0  0  0
 27 29  1  0  0  0  0
 27 30  1  0  0  0  0
 30 31  1  0  0  0  0
 30 32  1  0  0  0  0
 30 33  1  0  0  0  0
 33 34  1  0  0  0  0
 34 35  2  0  0  0  0
 35 36  1  0  0  0  0
 36 37  2  0  0  0  0
 37 38  1  0  0  0  0
 37 39  1  0  0  0  0
 39 40  1  0  0  0  0
 39 41  2  0  0  0  0
  6 41  1  0  0  0  0
 34 41  1  0  0  0  0
 36 42  1  0  0  0  0
 35 43  1  0  0  0  0
  5 44  1  0  0  0  0
  5 45  1  0  0  0  0
  1 46  1  0  0  0  0
  1 47  1  0  0  0  0
  1 48  1  0  0  0  0
M  END
> <Potency>
15.6482071023667

> <pIC50>
4.805535414676882

> <Outcome>
Inactive

> <is_active>
0

$$$$

  Mrv1921 08232120312D          

 53 57  0  0  0  0            999 V2000
    2.1434   -2.8875    0.0000 O   0  0  0  0  0  0  0  0  0  0  0  0
    1.4289   -2.4750    0.0000 C   0  0  0  0  0  0  0  0  0  0  0  0
    0.7145   -2.8875    0.0000 N   0  0  0  0  0  0  0  0  0  0  0  0
    0.7145   -3.7125    0.0000 C   0  0  0  0  0  0  0  0  0  0  0  0
    1.4289   -4.1250    0.0000 C   0  0  0  0  0  0  0  0  0  0  0  0
    2.1434   -3.7125    0.0000 H   0  0  0  0  0  0  0  0  0  0  0  0
    1.4289   -4.9500    0.0000 N   0  0  0  0  0  0  0  0  0  0  0  0
    0.7145   -5.3625    0.0000 C   0  0  0  0  0  0  0  0  0  0  0  0
    0.7145   -6.1875    0.0000 H   0  0  0  0  0  0  0  0  0  0  0  0
    0.0000   -4.9500    0.0000 C   0  0  0  0  0  0  0  0  0  0  0  0
   -0.7145   -5.3625    0.0000 C   0  0  0  0  0  0  0  0  0  0  0  0
   -1.4289   -4.9500    0.0000 C   0  0  0  0  0  0  0  0  0  0  0  0
   -1.4289   -4.1250    0.0000 C   0  0  0  0  0  0  0  0  0  0  0  0
   -0.7145   -3.7125    0.0000 C   0  0  0  0  0  0  0  0  0  0  0  0
   -0.7145   -2.8875    0.0000 H   0  0  0  0  0  0  0  0  0  0  0  0
    0.0000   -4.1250    0.0000 C   0  0  0  0  0  0  0  0  0  0  0  0
   -2.1434   -3.7125    0.0000 H   0  0  0  0  0  0  0  0  0  0  0  0
   -2.1434   -5.3625    0.0000 H   0  0  0  0  0  0  0  0  0  0  0  0
   -0.7145   -6.1875    0.0000 H   0  0  0  0  0  0  0  0  0  0  0  0
    0.0000   -2.4750    0.0000 H   0  0  0  0  0  0  0  0  0  0  0  0
    1.4289   -1.6500    0.0000 C   0  0  0  0  0  0  0  0  0  0  0  0
    0.7145   -1.2375    0.0000 C   0  0  0  0  0  0  0  0  0  0  0  0
   -0.1091   -1.2855    0.0000 H   0  0  0  0  0  0  0  0  0  0  0  0
    0.2611   -1.9268    0.0000 H   0  0  0  0  0  0  0  0  0  0  0  0
    0.7145   -0.4125    0.0000 C   0  0  0  0  0  0  0  0  0  0  0  0
    0.2611    0.2768    0.0000 H   0  0  0  0  0  0  0  0  0  0  0  0
   -0.1091   -0.3645    0.0000 H   0  0  0  0  0  0  0  0  0  0  0  0
    1.4289    0.0000    0.0000 O   0  0  0  0  0  0  0  0  0  0  0  0
    2.1434   -0.4125    0.0000 C   0  0  0  0  0  0  0  0  0  0  0  0
    2.8579    0.0000    0.0000 C   0  0  0  0  0  0  0  0  0  0  0  0
    2.8579    0.8250    0.0000 O   0  0  0  0  0  0  0  0  0  0  0  0
    2.1434    1.2375    0.0000 C   0  0  0  0  0  0  0  0  0  0  0  0
    2.1434    2.0625    0.0000 C   0  0  0  0  0  0  0  0  0  0  0  0
    1.4289    2.4750    0.0000 C   0  0  0  0  0  0  0  0  0  0  0  0
    0.7145    2.0625    0.0000 H   0  0  0  0  0  0  0  0  0  0  0  0
    1.4289    3.3000    0.0000 C   0  0  0  0  0  0  0  0  0  0  0  0
    0.7145    3.7125    0.0000 H   0  0  0  0  0  0  0  0  0  0  0  0
    2.1434    3.7125    0.0000 C   0  0  0  0  0  0  0  0  0  0  0  0
    2.1434    4.5375    0.0000 H   0  0  0  0  0  0  0  0  0  0  0  0
    2.8579    3.3000    0.0000 C   0  0  0  0  0  0  0  0  0  0  0  0
    3.5724    3.7125    0.0000 H   0  0  0  0  0  0  0  0  0  0  0  0
    2.8579    2.4750    0.0000 C   0  0  0  0  0  0  0  0  0  0  0  0
    3.5724    2.0625    0.0000 H   0  0  0  0  0  0  0  0  0  0  0  0
    1.3198    1.1895    0.0000 H   0  0  0  0  0  0  0  0  0  0  0  0
    1.6901    0.5482    0.0000 H   0  0  0  0  0  0  0  0  0  0  0  0
    3.5724   -0.4125    0.0000 C   0  0  0  0  0  0  0  0  0  0  0  0
    3.5724   -1.2375    0.0000 C   0  0  0  0  0  0  0  0  0  0  0  0
    4.2868   -1.6500    0.0000 Cl  0  0  0  0  0  0  0  0  0  0  0  0
    2.8579   -1.6500    0.0000 C   0  0  0  0  0  0  0  0  0  0  0  0
    3.2704   -2.3645    0.0000 H   0  0  0  0  0  0  0  0  0  0  0  0
    2.1434   -1.2375    0.0000 C   0  0  0  0  0  0  0  0  0  0  0  0
    4.2868   -0.0000    0.0000 H   0  0  0  0  0  0  0  0  0  0  0  0
    2.1434   -2.0625    0.0000 H   0  0  0  0  0  0  0  0  0  0  0  0
  1  2  2  0  0  0  0
  2  3  1  0  0  0  0
  3  4  1  0  0  0  0
  4  5  2  0  0  0  0
  5  6  1  0  0  0  0
  5  7  1  0  0  0  0
  7  8  2  0  0  0  0
  8  9  1  0  0  0  0
  8 10  1  0  0  0  0
 10 11  2  0  0  0  0
 11 12  1  0  0  0  0
 12 13  2  0  0  0  0
 13 14  1  0  0  0  0
 14 15  1  0  0  0  0
 14 16  2  0  0  0  0
  4 16  1  0  0  0  0
 10 16  1  0  0  0  0
 13 17  1  0  0  0  0
 12 18  1  0  0  0  0
 11 19  1  0  0  0  0
  3 20  1  0  0  0  0
  2 21  1  0  0  0  0
 21 22  1  0  0  0  0
 22 23  1  0  0  0  0
 22 24  1  0  0  0  0
 22 25  1  0  0  0  0
 25 26  1  0  0  0  0
 25 27  1  0  0  0  0
 25 28  1  0  0  0  0
 28 29  1  0  0  0  0
 29 30  2  0  0  0  0
 30 31  1  0  0  0  0
 31 32  1  0  0  0  0
 32 33  1  0  0  0  0
 33 34  2  0  0  0  0
 34 35  1  0  0  0  0
 34 36  1  0  0  0  0
 36 37  1  0  0  0  0
 36 38  2  0  0  0  0
 38 39  1  0  0  0  0
 38 40  1  0  0  0  0
 40 41  1  0  0  0  0
 40 42  2  0  0  0  0
 33 42  1  0  0  0  0
 42 43  1  0  0  0  0
 32 44  1  0  0  0  0
 32 45  1  0  0  0  0
 30 46  1  0  0  0  0
 46 47  2  0  0  0  0
 47 48  1  0  0  0  0
 47 49  1  0  0  0  0
 49 50  1  0  0  0  0
 49 51  2  0  0  0  0
 21 51  1  0  0  0  0
 29 51  1  0  0  0  0
 46 52  1  0  0  0  0
 21 53  1  0  0  0  0
M  END
> <Potency>
36.5305283241835

> <pIC50>
4.437344046741865

> <Outcome>
Inactive

> <is_active>
0

$$$$

  Mrv1921 08232120312D          

105105  0  0  0  0            999 V2000
  -13.6400   -1.9200    0.0000 C   0  0  0  0  0  0  0  0  0  0  0  0
  -12.8605   -1.6500    0.0000 C   0  0  0  0  0  0  0  0  0  0  0  0
  -12.0809   -1.3800    0.0000 C   0  0  0  0  0  0  0  0  0  0  0  0
  -11.4573   -1.9200    0.0000 C   0  0  0  0  0  0  0  0  0  0  0  0
  -10.6777   -1.6500    0.0000 C   0  0  0  0  0  0  0  0  0  0  0  0
  -10.0541   -2.1901    0.0000 C   0  0  0  0  0  0  0  0  0  0  0  0
  -10.2100   -3.0002    0.0000 O   0  0  0  0  0  0  0  0  0  0  0  0
   -9.2745   -1.9200    0.0000 N   0  0  0  0  0  0  0  0  0  0  0  0
   -8.6509   -2.4601    0.0000 C   0  0  0  0  0  0  0  0  0  0  0  0
   -8.8068   -3.2703    0.0000 C   0  0  0  0  0  0  0  0  0  0  0  0
   -8.1832   -3.8104    0.0000 C   0  0  0  0  0  0  0  0  0  0  0  0
   -8.1780   -4.6353    0.0000 H   0  0  0  0  0  0  0  0  0  0  0  0
   -7.3806   -4.0015    0.0000 H   0  0  0  0  0  0  0  0  0  0  0  0
   -7.8068   -3.0762    0.0000 H   0  0  0  0  0  0  0  0  0  0  0  0
   -9.5276   -3.6716    0.0000 H   0  0  0  0  0  0  0  0  0  0  0  0
   -9.1010   -4.0410    0.0000 H   0  0  0  0  0  0  0  0  0  0  0  0
   -7.8713   -2.1901    0.0000 C   0  0  0  0  0  0  0  0  0  0  0  0
   -7.7154   -1.3800    0.0000 O   0  0  0  0  0  0  0  0  0  0  0  0
   -7.2477   -2.7302    0.0000 N   0  0  0  0  0  0  0  0  0  0  0  0
   -6.4682   -2.4601    0.0000 C   0  0  0  0  0  0  0  0  0  0  0  0
   -5.8445   -3.0002    0.0000 C   0  0  0  0  0  0  0  0  0  0  0  0
   -6.0004   -3.8104    0.0000 O   0  0  0  0  0  0  0  0  0  0  0  0
   -5.0650   -2.7302    0.0000 N   0  0  0  0  0  0  0  0  0  0  0  0
   -4.4413   -3.2703    0.0000 C   0  0  0  0  0  0  0  0  0  0  0  0
   -4.5972   -4.0804    0.0000 C   0  0  0  0  0  0  0  0  0  0  0  0
   -3.9736   -4.6205    0.0000 C   0  0  0  0  0  0  0  0  0  0  0  0
   -3.1940   -4.3504    0.0000 C   0  0  0  0  0  0  0  0  0  0  0  0
   -3.3499   -5.1606    0.0000 H   0  0  0  0  0  0  0  0  0  0  0  0
   -2.5704   -4.8905    0.0000 H   0  0  0  0  0  0  0  0  0  0  0  0
   -2.4145   -4.0804    0.0000 H   0  0  0  0  0  0  0  0  0  0  0  0
   -4.1295   -5.4306    0.0000 C   0  0  0  0  0  0  0  0  0  0  0  0
   -4.8953   -5.7375    0.0000 H   0  0  0  0  0  0  0  0  0  0  0  0
   -4.2596   -6.2453    0.0000 H   0  0  0  0  0  0  0  0  0  0  0  0
   -3.4974   -5.9607    0.0000 H   0  0  0  0  0  0  0  0  0  0  0  0
   -3.8177   -3.8104    0.0000 H   0  0  0  0  0  0  0  0  0  0  0  0
   -5.3180   -4.4817    0.0000 H   0  0  0  0  0  0  0  0  0  0  0  0
   -4.8914   -4.8512    0.0000 H   0  0  0  0  0  0  0  0  0  0  0  0
   -3.6618   -3.0002    0.0000 C   0  0  0  0  0  0  0  0  0  0  0  0
   -3.5059   -2.1901    0.0000 O   0  0  0  0  0  0  0  0  0  0  0  0
   -3.0381   -3.5403    0.0000 N   0  0  0  0  0  0  0  0  0  0  0  0
   -2.2586   -3.2703    0.0000 C   0  0  0  0  0  0  0  0  0  0  0  0
   -2.1027   -2.4601    0.0000 C   0  0  0  0  0  0  0  0  0  0  0  0
   -1.3231   -2.1901    0.0000 C   0  0  0  0  0  0  0  0  0  0  0  0
   -1.1672   -1.3800    0.0000 C   0  0  0  0  0  0  0  0  0  0  0  0
   -1.7908   -0.8399    0.0000 N   0  0  0  0  0  0  0  0  0  0  0  0
   -1.5359   -0.0553    0.0000 H   0  0  0  0  0  0  0  0  0  0  0  0
   -2.3894   -0.2721    0.0000 H   0  0  0  0  0  0  0  0  0  0  0  0
   -0.3876   -1.1099    0.0000 O   0  0  0  0  0  0  0  0  0  0  0  0
   -0.4982   -2.2030    0.0000 H   0  0  0  0  0  0  0  0  0  0  0  0
   -0.6829   -1.6697    0.0000 H   0  0  0  0  0  0  0  0  0  0  0  0
   -2.0898   -1.6352    0.0000 H   0  0  0  0  0  0  0  0  0  0  0  0
   -2.6230   -1.8200    0.0000 H   0  0  0  0  0  0  0  0  0  0  0  0
   -1.6349   -3.8104    0.0000 C   0  0  0  0  0  0  0  0  0  0  0  0
   -1.7908   -4.6205    0.0000 O   0  0  0  0  0  0  0  0  0  0  0  0
   -0.8554   -3.5403    0.0000 C   0  0  0  0  0  0  0  0  0  0  0  0
   -0.2317   -4.0804    0.0000 O   0  0  0  0  0  0  0  0  0  0  0  0
    0.5478   -3.8104    0.0000 C   0  0  0  0  0  0  0  0  0  0  0  0
    1.1715   -4.3504    0.0000 O   0  0  0  0  0  0  0  0  0  0  0  0
    0.7037   -3.0002    0.0000 C   0  0  0  0  0  0  0  0  0  0  0  0
    0.0801   -2.4601    0.0000 C   0  0  0  0  0  0  0  0  0  0  0  0
   -0.6995   -2.7302    0.0000 C   0  0  0  0  0  0  0  0  0  0  0  0
   -1.5096   -2.5743    0.0000 H   0  0  0  0  0  0  0  0  0  0  0  0
   -1.2396   -3.3538    0.0000 H   0  0  0  0  0  0  0  0  0  0  0  0
    0.1107   -2.8861    0.0000 H   0  0  0  0  0  0  0  0  0  0  0  0
    0.2360   -1.6500    0.0000 C   0  0  0  0  0  0  0  0  0  0  0  0
    0.3919   -0.8399    0.0000 H   0  0  0  0  0  0  0  0  0  0  0  0
    1.0155   -1.3800    0.0000 C   0  0  0  0  0  0  0  0  0  0  0  0
    1.5556   -0.7563    0.0000 H   0  0  0  0  0  0  0  0  0  0  0  0
    1.6392   -1.9200    0.0000 C   0  0  0  0  0  0  0  0  0  0  0  0
    2.4187   -1.6500    0.0000 H   0  0  0  0  0  0  0  0  0  0  0  0
    1.4833   -2.7302    0.0000 C   0  0  0  0  0  0  0  0  0  0  0  0
    2.1069   -3.2703    0.0000 C   0  0  0  0  0  0  0  0  0  0  0  0
    1.5668   -3.8939    0.0000 H   0  0  0  0  0  0  0  0  0  0  0  0
    2.7306   -3.8104    0.0000 H   0  0  0  0  0  0  0  0  0  0  0  0
    2.6470   -2.6466    0.0000 H   0  0  0  0  0  0  0  0  0  0  0  0
   -0.0758   -3.2703    0.0000 H   0  0  0  0  0  0  0  0  0  0  0  0
   -1.0113   -4.3504    0.0000 H   0  0  0  0  0  0  0  0  0  0  0  0
   -1.4790   -3.0002    0.0000 H   0  0  0  0  0  0  0  0  0  0  0  0
   -2.8822   -2.7302    0.0000 H   0  0  0  0  0  0  0  0  0  0  0  0
   -5.2209   -3.5403    0.0000 H   0  0  0  0  0  0  0  0  0  0  0  0
   -4.9090   -1.9200    0.0000 H   0  0  0  0  0  0  0  0  0  0  0  0
   -6.3122   -1.6500    0.0000 C   0  0  0  0  0  0  0  0  0  0  0  0
   -5.5021   -1.8059    0.0000 C   0  0  0  0  0  0  0  0  0  0  0  0
   -5.9257   -2.5139    0.0000 H   0  0  0  0  0  0  0  0  0  0  0  0
   -5.3715   -2.6205    0.0000 H   0  0  0  0  0  0  0  0  0  0  0  0
   -5.3462   -0.9958    0.0000 H   0  0  0  0  0  0  0  0  0  0  0  0
   -7.1224   -1.4941    0.0000 C   0  0  0  0  0  0  0  0  0  0  0  0
   -6.6988   -0.7861    0.0000 H   0  0  0  0  0  0  0  0  0  0  0  0
   -7.2530   -0.6795    0.0000 H   0  0  0  0  0  0  0  0  0  0  0  0
   -7.2783   -2.3042    0.0000 H   0  0  0  0  0  0  0  0  0  0  0  0
   -6.1563   -0.8399    0.0000 C   0  0  0  0  0  0  0  0  0  0  0  0
   -5.4840   -0.3618    0.0000 H   0  0  0  0  0  0  0  0  0  0  0  0
   -6.0376   -0.0235    0.0000 H   0  0  0  0  0  0  0  0  0  0  0  0
   -6.6646   -0.1901    0.0000 H   0  0  0  0  0  0  0  0  0  0  0  0
   -6.6241   -3.2703    0.0000 H   0  0  0  0  0  0  0  0  0  0  0  0
   -6.8934   -3.4752    0.0000 H   0  0  0  0  0  0  0  0  0  0  0  0
   -9.4304   -2.7302    0.0000 H   0  0  0  0  0  0  0  0  0  0  0  0
   -9.1186   -1.1099    0.0000 H   0  0  0  0  0  0  0  0  0  0  0  0
  -10.1748   -0.9960    0.0000 H   0  0  0  0  0  0  0  0  0  0  0  0
  -10.9020   -0.8561    0.0000 H   0  0  0  0  0  0  0  0  0  0  0  0
  -11.9602   -2.5740    0.0000 H   0  0  0  0  0  0  0  0  0  0  0  0
  -11.2330   -2.7140    0.0000 H   0  0  0  0  0  0  0  0  0  0  0  0
  -11.5780   -0.7260    0.0000 H   0  0  0  0  0  0  0  0  0  0  0  0
  -12.3052   -0.5860    0.0000 H   0  0  0  0  0  0  0  0  0  0  0  0
  -14.4196   -2.1901    0.0000 H   0  0  0  0  0  0  0  0  0  0  0  0
  1  2  3  0  0  0  0
  2  3  1  0  0  0  0
  3  4  1  0  0  0  0
  4  5  1  0  0  0  0
  5  6  1  0  0  0  0
  6  7  2  0  0  0  0
  6  8  1  0  0  0  0
  8  9  1  0  0  0  0
  9 10  1  0  0  0  0
 10 11  1  0  0  0  0
 11 12  1  0  0  0  0
 11 13  1  0  0  0  0
 11 14  1  0  0  0  0
 10 15  1  0  0  0  0
 10 16  1  0  0  0  0
  9 17  1  0  0  0  0
 17 18  2  0  0  0  0
 17 19  1  0  0  0  0
 19 20  1  0  0  0  0
 20 21  1  0  0  0  0
 21 22  2  0  0  0  0
 21 23  1  0  0  0  0
 23 24  1  0  0  0  0
 24 25  1  0  0  0  0
 25 26  1  0  0  0  0
 26 27  1  0  0  0  0
 27 28  1  0  0  0  0
 27 29  1  0  0  0  0
 27 30  1  0  0  0  0
 26 31  1  0  0  0  0
 31 32  1  0  0  0  0
 31 33  1  0  0  0  0
 31 34  1  0  0  0  0
 26 35  1  0  0  0  0
 25 36  1  0  0  0  0
 25 37  1  0  0  0  0
 24 38  1  0  0  0  0
 38 39  2  0  0  0  0
 38 40  1  0  0  0  0
 40 41  1  0  0  0  0
 41 42  1  0  0  0  0
 42 43  1  0  0  0  0
 43 44  1  0  0  0  0
 44 45  1  0  0  0  0
 45 46  1  0  0  0  0
 45 47  1  0  0  0  0
 44 48  2  0  0  0  0
 43 49  1  0  0  0  0
 43 50  1  0  0  0  0
 42 51  1  0  0  0  0
 42 52  1  0  0  0  0
 41 53  1  0  0  0  0
 53 54  2  0  0  0  0
 53 55  1  0  0  0  0
 55 56  1  0  0  0  0
 56 57  1  0  0  0  0
 57 58  2  0  0  0  0
 57 59  1  0  0  0  0
 59 60  2  0  0  0  0
 60 61  1  0  0  0  0
 61 62  1  0  0  0  0
 61 63  1  0  0  0  0
 61 64  1  0  0  0  0
 60 65  1  0  0  0  0
 65 66  1  0  0  0  0
 65 67  2  0  0  0  0
 67 68  1  0  0  0  0
 67 69  1  0  0  0  0
 69 70  1  0  0  0  0
 69 71  2  0  0  0  0
 59 71  1  0  0  0  0
 71 72  1  0  0  0  0
 72 73  1  0  0  0  0
 72 74  1  0  0  0  0
 72 75  1  0  0  0  0
 55 76  1  0  0  0  0
 55 77  1  0  0  0  0
 41 78  1  0  0  0  0
 40 79  1  0  0  0  0
 24 80  1  0  0  0  0
 23 81  1  0  0  0  0
 20 82  1  0  0  0  0
 82 83  1  0  0  0  0
 83 84  1  0  0  0  0
 83 85  1  0  0  0  0
 83 86  1  0  0  0  0
 82 87  1  0  0  0  0
 87 88  1  0  0  0  0
 87 89  1  0  0  0  0
 87 90  1  0  0  0  0
 82 91  1  0  0  0  0
 91 92  1  0  0  0  0
 91 93  1  0  0  0  0
 91 94  1  0  0  0  0
 20 95  1  0  0  0  0
 19 96  1  0  0  0  0
  9 97  1  0  0  0  0
  8 98  1  0  0  0  0
  5 99  1  0  0  0  0
  5100  1  0  0  0  0
  4101  1  0  0  0  0
  4102  1  0  0  0  0
  3103  1  0  0  0  0
  3104  1  0  0  0  0
  1105  1  0  0  0  0
M  END
> <Potency>
15.1754239421511

> <pIC50>
4.818859167589435

> <Outcome>
Inactive

> <is_active>
0

$$$$

  Mrv1921 08232120312D          

 62 65  0  0  0  0            999 V2000
    7.0380   -3.3616    0.0000 C   0  0  0  0  0  0  0  0  0  0  0  0
    6.3235   -2.9491    0.0000 C   0  0  0  0  0  0  0  0  0  0  0  0
    6.7360   -2.2346    0.0000 C   0  0  0  0  0  0  0  0  0  0  0  0
    7.3905   -1.7324    0.0000 H   0  0  0  0  0  0  0  0  0  0  0  0
    6.5225   -1.4377    0.0000 H   0  0  0  0  0  0  0  0  0  0  0  0
    5.9181   -2.1270    0.0000 H   0  0  0  0  0  0  0  0  0  0  0  0
    5.9110   -3.6636    0.0000 C   0  0  0  0  0  0  0  0  0  0  0  0
    5.4088   -3.0091    0.0000 H   0  0  0  0  0  0  0  0  0  0  0  0
    5.1141   -3.8771    0.0000 H   0  0  0  0  0  0  0  0  0  0  0  0
    5.8033   -4.4815    0.0000 H   0  0  0  0  0  0  0  0  0  0  0  0
    5.6091   -2.5366    0.0000 C   0  0  0  0  0  0  0  0  0  0  0  0
    4.8946   -2.9491    0.0000 C   0  0  0  0  0  0  0  0  0  0  0  0
    4.2327   -3.4416    0.0000 H   0  0  0  0  0  0  0  0  0  0  0  0
    4.1801   -2.5366    0.0000 C   0  0  0  0  0  0  0  0  0  0  0  0
    3.4569   -2.1397    0.0000 H   0  0  0  0  0  0  0  0  0  0  0  0
    4.1801   -1.7116    0.0000 C   0  0  0  0  0  0  0  0  0  0  0  0
    3.4656   -1.2991    0.0000 N   0  0  0  0  0  0  0  0  0  0  0  0
    2.7512   -1.7116    0.0000 C   0  0  0  0  0  0  0  0  0  0  0  0
    2.0367   -1.2991    0.0000 O   0  0  0  0  0  0  0  0  0  0  0  0
    2.7512   -2.5366    0.0000 C   0  0  0  0  0  0  0  0  0  0  0  0
    3.4186   -3.0215    0.0000 C   0  0  0  0  0  0  0  0  0  0  0  0
    2.6340   -3.2765    0.0000 H   0  0  0  0  0  0  0  0  0  0  0  0
    3.1637   -3.8062    0.0000 C   0  0  0  0  0  0  0  0  0  0  0  0
    3.6486   -4.4736    0.0000 H   0  0  0  0  0  0  0  0  0  0  0  0
    2.3387   -3.8062    0.0000 C   0  0  0  0  0  0  0  0  0  0  0  0
    1.8538   -4.4736    0.0000 H   0  0  0  0  0  0  0  0  0  0  0  0
    2.0837   -3.0215    0.0000 O   0  0  0  0  0  0  0  0  0  0  0  0
    3.4656   -0.4741    0.0000 C   0  0  0  0  0  0  0  0  0  0  0  0
    2.7512   -0.0616    0.0000 C   0  0  0  0  0  0  0  0  0  0  0  0
    2.0367   -0.4741    0.0000 O   0  0  0  0  0  0  0  0  0  0  0  0
    2.7512    0.7634    0.0000 N   0  0  0  0  0  0  0  0  0  0  0  0
    2.0367    1.1759    0.0000 C   0  0  0  0  0  0  0  0  0  0  0  0
    1.2131    1.1279    0.0000 H   0  0  0  0  0  0  0  0  0  0  0  0
    1.5834    0.4866    0.0000 H   0  0  0  0  0  0  0  0  0  0  0  0
    2.0367    2.0009    0.0000 C   0  0  0  0  0  0  0  0  0  0  0  0
    1.5834    2.6902    0.0000 H   0  0  0  0  0  0  0  0  0  0  0  0
    1.2131    2.0489    0.0000 H   0  0  0  0  0  0  0  0  0  0  0  0
    2.7512    2.4134    0.0000 O   0  0  0  0  0  0  0  0  0  0  0  0
    3.4656    2.0009    0.0000 C   0  0  0  0  0  0  0  0  0  0  0  0
    4.2893    2.0489    0.0000 H   0  0  0  0  0  0  0  0  0  0  0  0
    3.9190    2.6902    0.0000 H   0  0  0  0  0  0  0  0  0  0  0  0
    3.4656    1.1759    0.0000 C   0  0  0  0  0  0  0  0  0  0  0  0
    3.4656    0.3509    0.0000 H   0  0  0  0  0  0  0  0  0  0  0  0
    2.7512    1.5884    0.0000 H   0  0  0  0  0  0  0  0  0  0  0  0
    4.1801   -0.0616    0.0000 C   0  0  0  0  0  0  0  0  0  0  0  0
    4.1801    0.7634    0.0000 C   0  0  0  0  0  0  0  0  0  0  0  0
    4.1801    1.5884    0.0000 H   0  0  0  0  0  0  0  0  0  0  0  0
    4.8946    1.1759    0.0000 C   0  0  0  0  0  0  0  0  0  0  0  0
    5.3071    1.8904    0.0000 H   0  0  0  0  0  0  0  0  0  0  0  0
    5.6091    0.7634    0.0000 C   0  0  0  0  0  0  0  0  0  0  0  0
    6.3235    1.1759    0.0000 H   0  0  0  0  0  0  0  0  0  0  0  0
    5.6091   -0.0616    0.0000 N   0  0  0  0  0  0  0  0  0  0  0  0
    4.8946   -0.4741    0.0000 C   0  0  0  0  0  0  0  0  0  0  0  0
    4.1801   -0.8866    0.0000 H   0  0  0  0  0  0  0  0  0  0  0  0
    2.7512   -0.8866    0.0000 H   0  0  0  0  0  0  0  0  0  0  0  0
    4.8946   -1.2991    0.0000 C   0  0  0  0  0  0  0  0  0  0  0  0
    5.6091   -0.8866    0.0000 H   0  0  0  0  0  0  0  0  0  0  0  0
    5.6091   -1.7116    0.0000 C   0  0  0  0  0  0  0  0  0  0  0  0
    4.8946   -2.1241    0.0000 H   0  0  0  0  0  0  0  0  0  0  0  0
    6.6255   -4.0761    0.0000 H   0  0  0  0  0  0  0  0  0  0  0  0
    7.7525   -3.7741    0.0000 H   0  0  0  0  0  0  0  0  0  0  0  0
    7.4505   -2.6471    0.0000 H   0  0  0  0  0  0  0  0  0  0  0  0
  1  2  1  0  0  0  0
  2  3  1  0  0  0  0
  3  4  1  0  0  0  0
  3  5  1  0  0  0  0
  3  6  1  0  0  0  0
  2  7  1  0  0  0  0
  7  8  1  0  0  0  0
  7  9  1  0  0  0  0
  7 10  1  0  0  0  0
  2 11  1  0  0  0  0
 11 12  2  0  0  0  0
 12 13  1  0  0  0  0
 12 14  1  0  0  0  0
 14 15  1  0  0  0  0
 14 16  2  0  0  0  0
 16 17  1  0  0  0  0
 17 18  1  0  0  0  0
 18 19  2  0  0  0  0
 18 20  1  0  0  0  0
 20 21  2  0  0  0  0
 21 22  1  0  0  0  0
 21 23  1  0  0  0  0
 23 24  1  0  0  0  0
 23 25  2  0  0  0  0
 25 26  1  0  0  0  0
 25 27  1  0  0  0  0
 20 27  1  0  0  0  0
 17 28  1  0  0  0  0
 28 29  1  0  0  0  0
 29 30  2  0  0  0  0
 29 31  1  0  0  0  0
 31 32  1  0  0  0  0
 32 33  1  0  0  0  0
 32 34  1  0  0  0  0
 32 35  1  0  0  0  0
 35 36  1  0  0  0  0
 35 37  1  0  0  0  0
 35 38  1  0  0  0  0
 38 39  1  0  0  0  0
 39 40  1  0  0  0  0
 39 41  1  0  0  0  0
 39 42  1  0  0  0  0
 31 42  1  0  0  0  0
 42 43  1  0  0  0  0
 42 44  1  0  0  0  0
 28 45  1  0  0  0  0
 45 46  2  0  0  0  0
 46 47  1  0  0  0  0
 46 48  1  0  0  0  0
 48 49  1  0  0  0  0
 48 50  2  0  0  0  0
 50 51  1  0  0  0  0
 50 52  1  0  0  0  0
 52 53  2  0  0  0  0
 45 53  1  0  0  0  0
 53 54  1  0  0  0  0
 28 55  1  0  0  0  0
 16 56  1  0  0  0  0
 56 57  1  0  0  0  0
 56 58  2  0  0  0  0
 11 58  1  0  0  0  0
 58 59  1  0  0  0  0
  1 60  1  0  0  0  0
  1 61  1  0  0  0  0
  1 62  1  0  0  0  0
M  END
> <Potency>
40.9555384442711

> <pIC50>
4.387687360005107

> <Outcome>
Inactive

> <is_active>
0

$$$$

  Mrv1921 08232120312D          

 72 76  0  0  0  0            999 V2000
    7.2344    9.7487    0.0000 C   0  0  0  0  0  0  0  0  0  0  0  0
    6.4549    9.4786    0.0000 O   0  0  0  0  0  0  0  0  0  0  0  0
    6.2990    8.6685    0.0000 C   0  0  0  0  0  0  0  0  0  0  0  0
    6.8628    8.0662    0.0000 N   0  0  0  0  0  0  0  0  0  0  0  0
    6.4641    7.3439    0.0000 C   0  0  0  0  0  0  0  0  0  0  0  0
    6.7342    6.5643    0.0000 N   0  0  0  0  0  0  0  0  0  0  0  0
    6.1941    5.9407    0.0000 C   0  0  0  0  0  0  0  0  0  0  0  0
    5.3839    6.0966    0.0000 C   0  0  0  0  0  0  0  0  0  0  0  0
    4.8439    5.4730    0.0000 C   0  0  0  0  0  0  0  0  0  0  0  0
    4.0337    5.6289    0.0000 C   0  0  0  0  0  0  0  0  0  0  0  0
    3.7637    6.4084    0.0000 O   0  0  0  0  0  0  0  0  0  0  0  0
    3.4936    5.0052    0.0000 N   0  0  0  0  0  0  0  0  0  0  0  0
    2.6835    5.1611    0.0000 C   0  0  0  0  0  0  0  0  0  0  0  0
    2.1434    4.5375    0.0000 C   0  0  0  0  0  0  0  0  0  0  0  0
    1.3333    4.6934    0.0000 C   0  0  0  0  0  0  0  0  0  0  0  0
    0.7932    4.0698    0.0000 C   0  0  0  0  0  0  0  0  0  0  0  0
    1.0632    3.2902    0.0000 H   0  0  0  0  0  0  0  0  0  0  0  0
   -0.0169    4.2257    0.0000 C   0  0  0  0  0  0  0  0  0  0  0  0
   -0.5570    3.6020    0.0000 H   0  0  0  0  0  0  0  0  0  0  0  0
   -0.2870    5.0052    0.0000 C   0  0  0  0  0  0  0  0  0  0  0  0
   -1.0971    5.1611    0.0000 H   0  0  0  0  0  0  0  0  0  0  0  0
    0.2531    5.6289    0.0000 C   0  0  0  0  0  0  0  0  0  0  0  0
   -0.0169    6.4084    0.0000 F   0  0  0  0  0  0  0  0  0  0  0  0
    1.0632    5.4730    0.0000 C   0  0  0  0  0  0  0  0  0  0  0  0
    1.6033    6.0966    0.0000 H   0  0  0  0  0  0  0  0  0  0  0  0
    2.0349    3.7197    0.0000 H   0  0  0  0  0  0  0  0  0  0  0  0
    2.7346    3.9621    0.0000 H   0  0  0  0  0  0  0  0  0  0  0  0
    2.7920    5.9790    0.0000 H   0  0  0  0  0  0  0  0  0  0  0  0
    2.0923    5.7366    0.0000 H   0  0  0  0  0  0  0  0  0  0  0  0
    4.3038    4.8493    0.0000 H   0  0  0  0  0  0  0  0  0  0  0  0
    5.1139    4.6934    0.0000 N   0  0  0  0  0  0  0  0  0  0  0  0
    5.9240    4.5375    0.0000 C   0  0  0  0  0  0  0  0  0  0  0  0
    6.4641    5.1611    0.0000 O   0  0  0  0  0  0  0  0  0  0  0  0
    6.1941    3.7579    0.0000 C   0  0  0  0  0  0  0  0  0  0  0  0
    6.9835    3.5182    0.0000 C   0  0  0  0  0  0  0  0  0  0  0  0
    7.6414    4.0159    0.0000 H   0  0  0  0  0  0  0  0  0  0  0  0
    6.9994    2.6934    0.0000 O   0  0  0  0  0  0  0  0  0  0  0  0
    6.2199    2.4233    0.0000 C   0  0  0  0  0  0  0  0  0  0  0  0
    5.9801    1.6339    0.0000 H   0  0  0  0  0  0  0  0  0  0  0  0
    5.7221    3.0813    0.0000 N   0  0  0  0  0  0  0  0  0  0  0  0
    4.5738    4.0698    0.0000 C   0  0  0  0  0  0  0  0  0  0  0  0
    4.8439    3.2902    0.0000 C   0  0  0  0  0  0  0  0  0  0  0  0
    5.3974    3.9020    0.0000 H   0  0  0  0  0  0  0  0  0  0  0  0
    4.3038    2.6666    0.0000 C   0  0  0  0  0  0  0  0  0  0  0  0
    4.5738    1.8870    0.0000 H   0  0  0  0  0  0  0  0  0  0  0  0
    3.4936    2.8225    0.0000 C   0  0  0  0  0  0  0  0  0  0  0  0
    2.9535    2.1988    0.0000 C   0  0  0  0  0  0  0  0  0  0  0  0
    2.4135    1.5752    0.0000 C   0  0  0  0  0  0  0  0  0  0  0  0
    1.7898    2.1153    0.0000 H   0  0  0  0  0  0  0  0  0  0  0  0
    1.8734    0.9516    0.0000 H   0  0  0  0  0  0  0  0  0  0  0  0
    3.0371    1.0351    0.0000 H   0  0  0  0  0  0  0  0  0  0  0  0
    2.3299    2.7389    0.0000 C   0  0  0  0  0  0  0  0  0  0  0  0
    3.0675    3.1084    0.0000 H   0  0  0  0  0  0  0  0  0  0  0  0
    2.2708    3.5618    0.0000 H   0  0  0  0  0  0  0  0  0  0  0  0
    1.5471    2.9993    0.0000 H   0  0  0  0  0  0  0  0  0  0  0  0
    3.5772    1.6588    0.0000 C   0  0  0  0  0  0  0  0  0  0  0  0
    3.9467    0.9211    0.0000 H   0  0  0  0  0  0  0  0  0  0  0  0
    4.4001    1.7178    0.0000 H   0  0  0  0  0  0  0  0  0  0  0  0
    3.8375    2.4416    0.0000 H   0  0  0  0  0  0  0  0  0  0  0  0
    3.2236    3.6020    0.0000 C   0  0  0  0  0  0  0  0  0  0  0  0
    4.0337    3.4461    0.0000 H   0  0  0  0  0  0  0  0  0  0  0  0
    3.7637    4.2257    0.0000 C   0  0  0  0  0  0  0  0  0  0  0  0
    2.9535    4.3816    0.0000 H   0  0  0  0  0  0  0  0  0  0  0  0
    4.5738    6.2525    0.0000 H   0  0  0  0  0  0  0  0  0  0  0  0
    5.1139    6.8762    0.0000 C   0  0  0  0  0  0  0  0  0  0  0  0
    4.4903    7.4162    0.0000 H   0  0  0  0  0  0  0  0  0  0  0  0
    5.6540    7.4998    0.0000 N   0  0  0  0  0  0  0  0  0  0  0  0
    5.5519    8.3185    0.0000 N   0  0  0  0  0  0  0  0  0  0  0  0
    5.6540    5.3171    0.0000 H   0  0  0  0  0  0  0  0  0  0  0  0
    7.5045    8.9691    0.0000 H   0  0  0  0  0  0  0  0  0  0  0  0
    8.0140   10.0187    0.0000 H   0  0  0  0  0  0  0  0  0  0  0  0
    6.9644   10.5282    0.0000 H   0  0  0  0  0  0  0  0  0  0  0  0
  1  2  1  0  0  0  0
  2  3  1  0  0  0  0
  3  4  1  0  0  0  0
  4  5  2  0  0  0  0
  5  6  1  0  0  0  0
  6  7  2  0  0  0  0
  7  8  1  0  0  0  0
  8  9  1  0  0  0  0
  9 10  1  0  0  0  0
 10 11  2  0  0  0  0
 10 12  1  0  0  0  0
 12 13  1  0  0  0  0
 13 14  1  0  0  0  0
 14 15  1  0  0  0  0
 15 16  2  0  0  0  0
 16 17  1  0  0  0  0
 16 18  1  0  0  0  0
 18 19  1  0  0  0  0
 18 20  2  0  0  0  0
 20 21  1  0  0  0  0
 20 22  1  0  0  0  0
 22 23  1  0  0  0  0
 22 24  2  0  0  0  0
 15 24  1  0  0  0  0
 24 25  1  0  0  0  0
 14 26  1  0  0  0  0
 14 27  1  0  0  0  0
 13 28  1  0  0  0  0
 13 29  1  0  0  0  0
 12 30  1  0  0  0  0
  9 31  1  0  0  0  0
 31 32  1  0  0  0  0
 32 33  2  0  0  0  0
 32 34  1  0  0  0  0
 34 35  2  0  0  0  0
 35 36  1  0  0  0  0
 35 37  1  0  0  0  0
 37 38  1  0  0  0  0
 38 39  1  0  0  0  0
 38 40  2  0  0  0  0
 34 40  1  0  0  0  0
 31 41  1  0  0  0  0
 41 42  2  0  0  0  0
 42 43  1  0  0  0  0
 42 44  1  0  0  0  0
 44 45  1  0  0  0  0
 44 46  2  0  0  0  0
 46 47  1  0  0  0  0
 47 48  1  0  0  0  0
 48 49  1  0  0  0  0
 48 50  1  0  0  0  0
 48 51  1  0  0  0  0
 47 52  1  0  0  0  0
 52 53  1  0  0  0  0
 52 54  1  0  0  0  0
 52 55  1  0  0  0  0
 47 56  1  0  0  0  0
 56 57  1  0  0  0  0
 56 58  1  0  0  0  0
 56 59  1  0  0  0  0
 46 60  1  0  0  0  0
 60 61  1  0  0  0  0
 60 62  2  0  0  0  0
 41 62  1  0  0  0  0
 62 63  1  0  0  0  0
  9 64  1  0  0  0  0
  8 65  2  0  0  0  0
 65 66  1  0  0  0  0
 65 67  1  0  0  0  0
  5 67  1  0  0  0  0
 67 68  1  0  0  0  0
  3 68  2  0  0  0  0
  7 69  1  0  0  0  0
  1 70  1  0  0  0  0
  1 71  1  0  0  0  0
  1 72  1  0  0  0  0
M  END
> <Potency>
33.419823305515

> <pIC50>
4.475995850601893

> <Outcome>
Inactive

> <is_active>
0

$$$$

  Mrv1921 08232120312D          

 69 72  0  0  0  0            999 V2000
    3.1279   -5.5282    0.0000 C   0  0  0  0  0  0  0  0  0  0  0  0
    3.9381   -5.3723    0.0000 O   0  0  0  0  0  0  0  0  0  0  0  0
    4.4782   -5.9959    0.0000 C   0  0  0  0  0  0  0  0  0  0  0  0
    4.2081   -6.7755    0.0000 N   0  0  0  0  0  0  0  0  0  0  0  0
    4.7482   -7.3991    0.0000 C   0  0  0  0  0  0  0  0  0  0  0  0
    4.4782   -8.1787    0.0000 H   0  0  0  0  0  0  0  0  0  0  0  0
    5.5583   -7.2432    0.0000 C   0  0  0  0  0  0  0  0  0  0  0  0
    6.0984   -7.8668    0.0000 H   0  0  0  0  0  0  0  0  0  0  0  0
    5.8284   -6.4637    0.0000 N   0  0  0  0  0  0  0  0  0  0  0  0
    5.2883   -5.8400    0.0000 C   0  0  0  0  0  0  0  0  0  0  0  0
    5.5583   -5.0605    0.0000 C   0  0  0  0  0  0  0  0  0  0  0  0
    5.0182   -4.4368    0.0000 C   0  0  0  0  0  0  0  0  0  0  0  0
    5.2883   -3.6573    0.0000 O   0  0  0  0  0  0  0  0  0  0  0  0
    4.2081   -4.5927    0.0000 N   0  0  0  0  0  0  0  0  0  0  0  0
    3.6680   -3.9691    0.0000 C   0  0  0  0  0  0  0  0  0  0  0  0
    2.8579   -4.1250    0.0000 C   0  0  0  0  0  0  0  0  0  0  0  0
    2.3178   -3.5014    0.0000 C   0  0  0  0  0  0  0  0  0  0  0  0
    1.5077   -3.6573    0.0000 C   0  0  0  0  0  0  0  0  0  0  0  0
    1.2376   -4.4368    0.0000 H   0  0  0  0  0  0  0  0  0  0  0  0
    0.9676   -3.0336    0.0000 C   0  0  0  0  0  0  0  0  0  0  0  0
    0.1574   -3.1895    0.0000 H   0  0  0  0  0  0  0  0  0  0  0  0
    1.2376   -2.2541    0.0000 C   0  0  0  0  0  0  0  0  0  0  0  0
    0.6975   -1.6304    0.0000 H   0  0  0  0  0  0  0  0  0  0  0  0
    2.0477   -2.0982    0.0000 C   0  0  0  0  0  0  0  0  0  0  0  0
    2.3178   -1.3186    0.0000 F   0  0  0  0  0  0  0  0  0  0  0  0
    2.5878   -2.7218    0.0000 C   0  0  0  0  0  0  0  0  0  0  0  0
    3.2115   -2.1817    0.0000 H   0  0  0  0  0  0  0  0  0  0  0  0
    2.1157   -4.4853    0.0000 H   0  0  0  0  0  0  0  0  0  0  0  0
    3.1279   -3.3454    0.0000 H   0  0  0  0  0  0  0  0  0  0  0  0
    4.2592   -3.3937    0.0000 H   0  0  0  0  0  0  0  0  0  0  0  0
    3.5595   -3.1513    0.0000 H   0  0  0  0  0  0  0  0  0  0  0  0
    3.3980   -4.7486    0.0000 H   0  0  0  0  0  0  0  0  0  0  0  0
    6.3685   -4.9046    0.0000 N   0  0  0  0  0  0  0  0  0  0  0  0
    6.6385   -4.1250    0.0000 C   0  0  0  0  0  0  0  0  0  0  0  0
    6.0984   -3.5014    0.0000 O   0  0  0  0  0  0  0  0  0  0  0  0
    7.4486   -3.9691    0.0000 C   0  0  0  0  0  0  0  0  0  0  0  0
    7.7987   -3.2220    0.0000 C   0  0  0  0  0  0  0  0  0  0  0  0
    7.4001   -2.4997    0.0000 H   0  0  0  0  0  0  0  0  0  0  0  0
    8.6174   -3.3241    0.0000 O   0  0  0  0  0  0  0  0  0  0  0  0
    8.7733   -4.1342    0.0000 C   0  0  0  0  0  0  0  0  0  0  0  0
    9.5203   -4.4843    0.0000 H   0  0  0  0  0  0  0  0  0  0  0  0
    8.0510   -4.5329    0.0000 N   0  0  0  0  0  0  0  0  0  0  0  0
    6.9086   -5.5282    0.0000 C   0  0  0  0  0  0  0  0  0  0  0  0
    7.7187   -5.3723    0.0000 C   0  0  0  0  0  0  0  0  0  0  0  0
    7.1923   -4.7371    0.0000 H   0  0  0  0  0  0  0  0  0  0  0  0
    8.2588   -5.9959    0.0000 C   0  0  0  0  0  0  0  0  0  0  0  0
    9.0689   -5.8400    0.0000 H   0  0  0  0  0  0  0  0  0  0  0  0
    7.9887   -6.7755    0.0000 C   0  0  0  0  0  0  0  0  0  0  0  0
    8.5288   -7.3991    0.0000 C   0  0  0  0  0  0  0  0  0  0  0  0
    9.0689   -8.0228    0.0000 C   0  0  0  0  0  0  0  0  0  0  0  0
    8.4453   -8.5628    0.0000 H   0  0  0  0  0  0  0  0  0  0  0  0
    9.6090   -8.6464    0.0000 H   0  0  0  0  0  0  0  0  0  0  0  0
    9.6926   -7.4827    0.0000 H   0  0  0  0  0  0  0  0  0  0  0  0
    7.9052   -7.9392    0.0000 C   0  0  0  0  0  0  0  0  0  0  0  0
    7.6449   -7.1564    0.0000 H   0  0  0  0  0  0  0  0  0  0  0  0
    7.0823   -7.8801    0.0000 H   0  0  0  0  0  0  0  0  0  0  0  0
    7.5357   -8.6768    0.0000 H   0  0  0  0  0  0  0  0  0  0  0  0
    9.1525   -6.8590    0.0000 C   0  0  0  0  0  0  0  0  0  0  0  0
    9.9353   -6.5987    0.0000 H   0  0  0  0  0  0  0  0  0  0  0  0
    9.2115   -6.0361    0.0000 H   0  0  0  0  0  0  0  0  0  0  0  0
    8.4148   -6.4895    0.0000 H   0  0  0  0  0  0  0  0  0  0  0  0
    7.1786   -6.9314    0.0000 C   0  0  0  0  0  0  0  0  0  0  0  0
    6.3920   -7.1801    0.0000 H   0  0  0  0  0  0  0  0  0  0  0  0
    6.6385   -6.3077    0.0000 C   0  0  0  0  0  0  0  0  0  0  0  0
    6.0984   -5.6841    0.0000 H   0  0  0  0  0  0  0  0  0  0  0  0
    4.7482   -5.2164    0.0000 H   0  0  0  0  0  0  0  0  0  0  0  0
    2.9720   -4.7181    0.0000 H   0  0  0  0  0  0  0  0  0  0  0  0
    2.3178   -5.6841    0.0000 H   0  0  0  0  0  0  0  0  0  0  0  0
    3.2838   -6.3383    0.0000 H   0  0  0  0  0  0  0  0  0  0  0  0
  1  2  1  0  0  0  0
  2  3  1  0  0  0  0
  3  4  2  0  0  0  0
  4  5  1  0  0  0  0
  5  6  1  0  0  0  0
  5  7  2  0  0  0  0
  7  8  1  0  0  0  0
  7  9  1  0  0  0  0
  9 10  2  0  0  0  0
  3 10  1  0  0  0  0
 10 11  1  0  0  0  0
 11 12  1  0  0  0  0
 12 13  2  0  0  0  0
 12 14  1  0  0  0  0
 14 15  1  0  0  0  0
 15 16  1  0  0  0  0
 16 17  1  0  0  0  0
 17 18  2  0  0  0  0
 18 19  1  0  0  0  0
 18 20  1  0  0  0  0
 20 21  1  0  0  0  0
 20 22  2  0  0  0  0
 22 23  1  0  0  0  0
 22 24  1  0  0  0  0
 24 25  1  0  0  0  0
 24 26  2  0  0  0  0
 17 26  1  0  0  0  0
 26 27  1  0  0  0  0
 16 28  1  0  0  0  0
 16 29  1  0  0  0  0
 15 30  1  0  0  0  0
 15 31  1  0  0  0  0
 14 32  1  0  0  0  0
 11 33  1  0  0  0  0
 33 34  1  0  0  0  0
 34 35  2  0  0  0  0
 34 36  1  0  0  0  0
 36 37  2  0  0  0  0
 37 38  1  0  0  0  0
 37 39  1  0  0  0  0
 39 40  1  0  0  0  0
 40 41  1  0  0  0  0
 40 42  2  0  0  0  0
 36 42  1  0  0  0  0
 33 43  1  0  0  0  0
 43 44  2  0  0  0  0
 44 45  1  0  0  0  0
 44 46  1  0  0  0  0
 46 47  1  0  0  0  0
 46 48  2  0  0  0  0
 48 49  1  0  0  0  0
 49 50  1  0  0  0  0
 50 51  1  0  0  0  0
 50 52  1  0  0  0  0
 50 53  1  0  0  0  0
 49 54  1  0  0  0  0
 54 55  1  0  0  0  0
 54 56  1  0  0  0  0
 54 57  1  0  0  0  0
 49 58  1  0  0  0  0
 58 59  1  0  0  0  0
 58 60  1  0  0  0  0
 58 61  1  0  0  0  0
 48 62  1  0  0  0  0
 62 63  1  0  0  0  0
 62 64  2  0  0  0  0
 43 64  1  0  0  0  0
 64 65  1  0  0  0  0
 11 66  1  0  0  0  0
  1 67  1  0  0  0  0
  1 68  1  0  0  0  0
  1 69  1  0  0  0  0
M  END
> <Potency>
94.8614877084905

> <pIC50>
4.022910068609704

> <Outcome>
Inactive

> <is_active>
0

$$$$

  Mrv1921 08232120312D          

 49 52  0  0  0  0            999 V2000
    3.9407    1.6765    0.0000 C   0  0  0  0  0  0  0  0  0  0  0  0
    4.4710    1.0445    0.0000 N   0  0  0  0  0  0  0  0  0  0  0  0
    5.2835    1.1877    0.0000 C   0  0  0  0  0  0  0  0  0  0  0  0
    5.5656    1.9630    0.0000 O   0  0  0  0  0  0  0  0  0  0  0  0
    5.8138    0.5558    0.0000 C   0  0  0  0  0  0  0  0  0  0  0  0
    6.3441    1.1877    0.0000 C   0  0  0  0  0  0  0  0  0  0  0  0
    6.0619    1.9630    0.0000 C   0  0  0  0  0  0  0  0  0  0  0  0
    5.3335    2.3503    0.0000 O   0  0  0  0  0  0  0  0  0  0  0  0
    6.5922    2.5950    0.0000 N   0  0  0  0  0  0  0  0  0  0  0  0
    6.3100    3.3702    0.0000 C   0  0  0  0  0  0  0  0  0  0  0  0
    5.4976    3.5135    0.0000 C   0  0  0  0  0  0  0  0  0  0  0  0
    4.9673    2.8815    0.0000 H   0  0  0  0  0  0  0  0  0  0  0  0
    5.2154    4.2887    0.0000 N   0  0  0  0  0  0  0  0  0  0  0  0
    5.7457    4.9207    0.0000 C   0  0  0  0  0  0  0  0  0  0  0  0
    5.4635    5.6960    0.0000 H   0  0  0  0  0  0  0  0  0  0  0  0
    6.5582    4.7775    0.0000 C   0  0  0  0  0  0  0  0  0  0  0  0
    7.0885    5.4094    0.0000 C   0  0  0  0  0  0  0  0  0  0  0  0
    7.9009    5.2662    0.0000 C   0  0  0  0  0  0  0  0  0  0  0  0
    8.1831    4.4909    0.0000 C   0  0  0  0  0  0  0  0  0  0  0  0
    7.6528    3.8590    0.0000 C   0  0  0  0  0  0  0  0  0  0  0  0
    7.9350    3.0837    0.0000 H   0  0  0  0  0  0  0  0  0  0  0  0
    6.8403    4.0022    0.0000 C   0  0  0  0  0  0  0  0  0  0  0  0
    8.9956    4.3477    0.0000 H   0  0  0  0  0  0  0  0  0  0  0  0
    8.4312    5.8982    0.0000 H   0  0  0  0  0  0  0  0  0  0  0  0
    6.8063    6.1847    0.0000 H   0  0  0  0  0  0  0  0  0  0  0  0
    7.4047    2.4517    0.0000 H   0  0  0  0  0  0  0  0  0  0  0  0
    7.0058    0.6951    0.0000 H   0  0  0  0  0  0  0  0  0  0  0  0
    7.1344    1.4244    0.0000 H   0  0  0  0  0  0  0  0  0  0  0  0
    5.0993    0.1433    0.0000 C   0  0  0  0  0  0  0  0  0  0  0  0
    4.9410    0.9529    0.0000 H   0  0  0  0  0  0  0  0  0  0  0  0
    5.8138   -0.2692    0.0000 H   0  0  0  0  0  0  0  0  0  0  0  0
    5.0993   -0.6817    0.0000 C   0  0  0  0  0  0  0  0  0  0  0  0
    4.2757   -0.7297    0.0000 H   0  0  0  0  0  0  0  0  0  0  0  0
    4.6459   -1.3710    0.0000 H   0  0  0  0  0  0  0  0  0  0  0  0
    5.8138   -1.0942    0.0000 O   0  0  0  0  0  0  0  0  0  0  0  0
    6.5282   -0.6817    0.0000 C   0  0  0  0  0  0  0  0  0  0  0  0
    7.2427   -1.0942    0.0000 C   0  0  0  0  0  0  0  0  0  0  0  0
    7.9572   -0.6817    0.0000 C   0  0  0  0  0  0  0  0  0  0  0  0
    7.9572    0.1433    0.0000 C   0  0  0  0  0  0  0  0  0  0  0  0
    8.6716    0.5558    0.0000 Cl  0  0  0  0  0  0  0  0  0  0  0  0
    7.2427    0.5558    0.0000 C   0  0  0  0  0  0  0  0  0  0  0  0
    7.9302    1.0118    0.0000 H   0  0  0  0  0  0  0  0  0  0  0  0
    6.5282    0.1433    0.0000 C   0  0  0  0  0  0  0  0  0  0  0  0
    8.6716   -1.0942    0.0000 H   0  0  0  0  0  0  0  0  0  0  0  0
    7.2427   -1.9192    0.0000 H   0  0  0  0  0  0  0  0  0  0  0  0
    4.1888    0.2692    0.0000 H   0  0  0  0  0  0  0  0  0  0  0  0
    4.5727    2.2068    0.0000 H   0  0  0  0  0  0  0  0  0  0  0  0
    3.4104    2.3085    0.0000 H   0  0  0  0  0  0  0  0  0  0  0  0
    3.3087    1.1462    0.0000 H   0  0  0  0  0  0  0  0  0  0  0  0
  1  2  1  0  0  0  0
  2  3  1  0  0  0  0
  3  4  2  0  0  0  0
  3  5  1  0  0  0  0
  5  6  1  0  0  0  0
  6  7  1  0  0  0  0
  7  8  2  0  0  0  0
  7  9  1  0  0  0  0
  9 10  1  0  0  0  0
 10 11  2  0  0  0  0
 11 12  1  0  0  0  0
 11 13  1  0  0  0  0
 13 14  2  0  0  0  0
 14 15  1  0  0  0  0
 14 16  1  0  0  0  0
 16 17  2  0  0  0  0
 17 18  1  0  0  0  0
 18 19  2  0  0  0  0
 19 20  1  0  0  0  0
 20 21  1  0  0  0  0
 20 22  2  0  0  0  0
 10 22  1  0  0  0  0
 16 22  1  0  0  0  0
 19 23  1  0  0  0  0
 18 24  1  0  0  0  0
 17 25  1  0  0  0  0
  9 26  1  0  0  0  0
  6 27  1  0  0  0  0
  6 28  1  0  0  0  0
  5 29  1  0  0  0  0
 29 30  1  0  0  0  0
 29 31  1  0  0  0  0
 29 32  1  0  0  0  0
 32 33  1  0  0  0  0
 32 34  1  0  0  0  0
 32 35  1  0  0  0  0
 35 36  1  0  0  0  0
 36 37  2  0  0  0  0
 37 38  1  0  0  0  0
 38 39  2  0  0  0  0
 39 40  1  0  0  0  0
 39 41  1  0  0  0  0
 41 42  1  0  0  0  0
 41 43  2  0  0  0  0
  5 43  1  0  0  0  0
 36 43  1  0  0  0  0
 38 44  1  0  0  0  0
 37 45  1  0  0  0  0
  2 46  1  0  0  0  0
  1 47  1  0  0  0  0
  1 48  1  0  0  0  0
  1 49  1  0  0  0  0
M  END
> <Potency>
30.7002550534679

> <pIC50>
4.512858016449407

> <Outcome>
Inactive

> <is_active>
0

$$$$

  Mrv1921 08232120312D          

 42 43  0  0  0  0            999 V2000
    4.2868    0.8250    0.0000 C   0  0  0  0  0  0  0  0  0  0  0  0
    4.2868    0.0000    0.0000 O   0  0  0  0  0  0  0  0  0  0  0  0
    3.5724   -0.4125    0.0000 C   0  0  0  0  0  0  0  0  0  0  0  0
    2.8579    0.0000    0.0000 O   0  0  0  0  0  0  0  0  0  0  0  0
    2.1434   -0.4125    0.0000 C   0  0  0  0  0  0  0  0  0  0  0  0
    2.1434    0.4125    0.0000 H   0  0  0  0  0  0  0  0  0  0  0  0
    1.4289    0.0000    0.0000 H   0  0  0  0  0  0  0  0  0  0  0  0
    1.4289   -0.8250    0.0000 H   0  0  0  0  0  0  0  0  0  0  0  0
    3.5724   -1.2375    0.0000 C   0  0  0  0  0  0  0  0  0  0  0  0
    4.2868   -1.6500    0.0000 O   0  0  0  0  0  0  0  0  0  0  0  0
    2.8579   -1.6500    0.0000 N   0  0  0  0  0  0  0  0  0  0  0  0
    2.8579   -2.4750    0.0000 C   0  0  0  0  0  0  0  0  0  0  0  0
    3.3112   -3.1643    0.0000 H   0  0  0  0  0  0  0  0  0  0  0  0
    3.6815   -2.5230    0.0000 H   0  0  0  0  0  0  0  0  0  0  0  0
    2.1434   -2.8875    0.0000 C   0  0  0  0  0  0  0  0  0  0  0  0
    1.7732   -3.6247    0.0000 H   0  0  0  0  0  0  0  0  0  0  0  0
    2.5137   -3.6247    0.0000 H   0  0  0  0  0  0  0  0  0  0  0  0
    1.4289   -2.4750    0.0000 N   0  0  0  0  0  0  0  0  0  0  0  0
    0.7145   -2.8875    0.0000 C   0  0  0  0  0  0  0  0  0  0  0  0
    0.0000   -2.4750    0.0000 C   0  0  0  0  0  0  0  0  0  0  0  0
   -0.7145   -2.8875    0.0000 C   0  0  0  0  0  0  0  0  0  0  0  0
   -0.7145   -3.7125    0.0000 H   0  0  0  0  0  0  0  0  0  0  0  0
   -1.4289   -2.4750    0.0000 C   0  0  0  0  0  0  0  0  0  0  0  0
   -2.1434   -2.8875    0.0000 H   0  0  0  0  0  0  0  0  0  0  0  0
   -1.4289   -1.6500    0.0000 C   0  0  0  0  0  0  0  0  0  0  0  0
   -2.1434   -1.2375    0.0000 H   0  0  0  0  0  0  0  0  0  0  0  0
   -0.7145   -1.2375    0.0000 C   0  0  0  0  0  0  0  0  0  0  0  0
   -0.7145   -0.4125    0.0000 Cl  0  0  0  0  0  0  0  0  0  0  0  0
    0.0000   -1.6500    0.0000 C   0  0  0  0  0  0  0  0  0  0  0  0
    0.7145   -1.2375    0.0000 H   0  0  0  0  0  0  0  0  0  0  0  0
    0.3442   -3.6247    0.0000 H   0  0  0  0  0  0  0  0  0  0  0  0
    1.0847   -3.6247    0.0000 H   0  0  0  0  0  0  0  0  0  0  0  0
    1.4289   -1.6500    0.0000 C   0  0  0  0  0  0  0  0  0  0  0  0
    0.7145   -2.0625    0.0000 H   0  0  0  0  0  0  0  0  0  0  0  0
    2.1434   -2.0625    0.0000 H   0  0  0  0  0  0  0  0  0  0  0  0
    2.1434   -1.2375    0.0000 C   0  0  0  0  0  0  0  0  0  0  0  0
    2.9559   -1.0942    0.0000 H   0  0  0  0  0  0  0  0  0  0  0  0
    2.6737   -0.6055    0.0000 H   0  0  0  0  0  0  0  0  0  0  0  0
    3.5724    0.4125    0.0000 H   0  0  0  0  0  0  0  0  0  0  0  0
    5.1118    0.8250    0.0000 H   0  0  0  0  0  0  0  0  0  0  0  0
    4.2868    1.6500    0.0000 H   0  0  0  0  0  0  0  0  0  0  0  0
    3.4618    0.8250    0.0000 H   0  0  0  0  0  0  0  0  0  0  0  0
  1  2  1  0  0  0  0
  2  3  1  0  0  0  0
  3  4  1  0  0  0  0
  4  5  1  0  0  0  0
  5  6  1  0  0  0  0
  5  7  1  0  0  0  0
  5  8  1  0  0  0  0
  3  9  1  0  0  0  0
  9 10  2  0  0  0  0
  9 11  1  0  0  0  0
 11 12  1  0  0  0  0
 12 13  1  0  0  0  0
 12 14  1  0  0  0  0
 12 15  1  0  0  0  0
 15 16  1  0  0  0  0
 15 17  1  0  0  0  0
 15 18  1  0  0  0  0
 18 19  1  0  0  0  0
 19 20  1  0  0  0  0
 20 21  2  0  0  0  0
 21 22  1  0  0  0  0
 21 23  1  0  0  0  0
 23 24  1  0  0  0  0
 23 25  2  0  0  0  0
 25 26  1  0  0  0  0
 25 27  1  0  0  0  0
 27 28  1  0  0  0  0
 27 29  2  0  0  0  0
 20 29  1  0  0  0  0
 29 30  1  0  0  0  0
 19 31  1  0  0  0  0
 19 32  1  0  0  0  0
 18 33  1  0  0  0  0
 33 34  1  0  0  0  0
 33 35  1  0  0  0  0
 33 36  1  0  0  0  0
 11 36  1  0  0  0  0
 36 37  1  0  0  0  0
 36 38  1  0  0  0  0
  3 39  1  0  0  0  0
  1 40  1  0  0  0  0
  1 41  1  0  0  0  0
  1 42  1  0  0  0  0
M  END
> <Potency>
94.0794493601215

> <pIC50>
4.026505233153146

> <Outcome>
Inactive

> <is_active>
0

$$$$

  Mrv1921 08232120312D          

 33 34  0  0  0  0            999 V2000
    4.2868    0.0000    0.0000 O   0  0  0  0  0  0  0  0  0  0  0  0
    3.5724   -0.4125    0.0000 C   0  0  0  0  0  0  0  0  0  0  0  0
    3.5724   -1.2375    0.0000 C   0  0  0  0  0  0  0  0  0  0  0  0
    4.2868   -1.6500    0.0000 O   0  0  0  0  0  0  0  0  0  0  0  0
    2.8579   -1.6500    0.0000 N   0  0  0  0  0  0  0  0  0  0  0  0
    2.8579   -2.4750    0.0000 C   0  0  0  0  0  0  0  0  0  0  0  0
    3.3112   -3.1643    0.0000 H   0  0  0  0  0  0  0  0  0  0  0  0
    3.6815   -2.5230    0.0000 H   0  0  0  0  0  0  0  0  0  0  0  0
    2.1434   -2.8875    0.0000 C   0  0  0  0  0  0  0  0  0  0  0  0
    1.7732   -3.6247    0.0000 H   0  0  0  0  0  0  0  0  0  0  0  0
    2.5137   -3.6247    0.0000 H   0  0  0  0  0  0  0  0  0  0  0  0
    1.4289   -2.4750    0.0000 N   0  0  0  0  0  0  0  0  0  0  0  0
    0.7145   -2.8875    0.0000 C   0  0  0  0  0  0  0  0  0  0  0  0
    0.0000   -2.4750    0.0000 C   0  0  0  0  0  0  0  0  0  0  0  0
   -0.7145   -2.8875    0.0000 C   0  0  0  0  0  0  0  0  0  0  0  0
   -0.7145   -3.7125    0.0000 H   0  0  0  0  0  0  0  0  0  0  0  0
   -1.4289   -2.4750    0.0000 C   0  0  0  0  0  0  0  0  0  0  0  0
   -2.1434   -2.8875    0.0000 H   0  0  0  0  0  0  0  0  0  0  0  0
   -1.4289   -1.6500    0.0000 C   0  0  0  0  0  0  0  0  0  0  0  0
   -2.1434   -1.2375    0.0000 H   0  0  0  0  0  0  0  0  0  0  0  0
   -0.7145   -1.2375    0.0000 C   0  0  0  0  0  0  0  0  0  0  0  0
   -0.7145   -0.4125    0.0000 Cl  0  0  0  0  0  0  0  0  0  0  0  0
    0.0000   -1.6500    0.0000 C   0  0  0  0  0  0  0  0  0  0  0  0
    0.7145   -1.2375    0.0000 H   0  0  0  0  0  0  0  0  0  0  0  0
    0.3442   -3.6247    0.0000 H   0  0  0  0  0  0  0  0  0  0  0  0
    1.0847   -3.6247    0.0000 H   0  0  0  0  0  0  0  0  0  0  0  0
    1.4289   -1.6500    0.0000 C   0  0  0  0  0  0  0  0  0  0  0  0
    1.4289   -0.8250    0.0000 H   0  0  0  0  0  0  0  0  0  0  0  0
    0.7145   -2.0625    0.0000 H   0  0  0  0  0  0  0  0  0  0  0  0
    2.1434   -1.2375    0.0000 C   0  0  0  0  0  0  0  0  0  0  0  0
    2.7754   -0.7072    0.0000 H   0  0  0  0  0  0  0  0  0  0  0  0
    2.2867   -0.4250    0.0000 H   0  0  0  0  0  0  0  0  0  0  0  0
    2.8579    0.0000    0.0000 H   0  0  0  0  0  0  0  0  0  0  0  0
  1  2  2  0  0  0  0
  2  3  1  0  0  0  0
  3  4  2  0  0  0  0
  3  5  1  0  0  0  0
  5  6  1  0  0  0  0
  6  7  1  0  0  0  0
  6  8  1  0  0  0  0
  6  9  1  0  0  0  0
  9 10  1  0  0  0  0
  9 11  1  0  0  0  0
  9 12  1  0  0  0  0
 12 13  1  0  0  0  0
 13 14  1  0  0  0  0
 14 15  2  0  0  0  0
 15 16  1  0  0  0  0
 15 17  1  0  0  0  0
 17 18  1  0  0  0  0
 17 19  2  0  0  0  0
 19 20  1  0  0  0  0
 19 21  1  0  0  0  0
 21 22  1  0  0  0  0
 21 23  2  0  0  0  0
 14 23  1  0  0  0  0
 23 24  1  0  0  0  0
 13 25  1  0  0  0  0
 13 26  1  0  0  0  0
 12 27  1  0  0  0  0
 27 28  1  0  0  0  0
 27 29  1  0  0  0  0
 27 30  1  0  0  0  0
  5 30  1  0  0  0  0
 30 31  1  0  0  0  0
 30 32  1  0  0  0  0
  2 33  1  0  0  0  0
M  END
> <Potency>
53.01526059317

> <pIC50>
4.2755990995043565

> <Outcome>
Inactive

> <is_active>
0

$$$$

  Mrv1921 08232120312D          

 55 58  0  0  0  0            999 V2000
   -2.1434   -6.1875    0.0000 C   0  0  0  0  0  0  0  0  0  0  0  0
   -1.4289   -6.6000    0.0000 C   0  0  0  0  0  0  0  0  0  0  0  0
   -0.7145   -6.1875    0.0000 N   0  0  0  0  0  0  0  0  0  0  0  0
    0.0000   -6.6000    0.0000 C   0  0  0  0  0  0  0  0  0  0  0  0
    0.7145   -6.1875    0.0000 C   0  0  0  0  0  0  0  0  0  0  0  0
    0.7145   -5.3625    0.0000 C   0  0  0  0  0  0  0  0  0  0  0  0
    0.0000   -5.7750    0.0000 H   0  0  0  0  0  0  0  0  0  0  0  0
    1.4289   -4.9500    0.0000 C   0  0  0  0  0  0  0  0  0  0  0  0
    1.4289   -4.1250    0.0000 H   0  0  0  0  0  0  0  0  0  0  0  0
    2.1434   -5.3625    0.0000 C   0  0  0  0  0  0  0  0  0  0  0  0
    2.8579   -4.9500    0.0000 F   0  0  0  0  0  0  0  0  0  0  0  0
    2.1434   -6.1875    0.0000 C   0  0  0  0  0  0  0  0  0  0  0  0
    2.8579   -6.6000    0.0000 H   0  0  0  0  0  0  0  0  0  0  0  0
    1.4289   -6.6000    0.0000 C   0  0  0  0  0  0  0  0  0  0  0  0
    1.4289   -7.4250    0.0000 H   0  0  0  0  0  0  0  0  0  0  0  0
   -0.3703   -7.3372    0.0000 H   0  0  0  0  0  0  0  0  0  0  0  0
    0.3703   -7.3372    0.0000 H   0  0  0  0  0  0  0  0  0  0  0  0
   -0.7145   -5.3625    0.0000 C   0  0  0  0  0  0  0  0  0  0  0  0
   -1.4289   -4.9500    0.0000 C   0  0  0  0  0  0  0  0  0  0  0  0
   -2.2258   -4.7365    0.0000 H   0  0  0  0  0  0  0  0  0  0  0  0
   -1.4289   -4.1250    0.0000 C   0  0  0  0  0  0  0  0  0  0  0  0
   -2.1434   -3.7125    0.0000 Cl  0  0  0  0  0  0  0  0  0  0  0  0
   -0.7145   -3.7125    0.0000 C   0  0  0  0  0  0  0  0  0  0  0  0
   -0.7145   -2.8875    0.0000 H   0  0  0  0  0  0  0  0  0  0  0  0
    0.0000   -4.1250    0.0000 C   0  0  0  0  0  0  0  0  0  0  0  0
    0.7145   -3.7125    0.0000 C   0  0  0  0  0  0  0  0  0  0  0  0
    0.7145   -2.8875    0.0000 C   0  0  0  0  0  0  0  0  0  0  0  0
    0.0000   -2.4750    0.0000 O   0  0  0  0  0  0  0  0  0  0  0  0
    1.4289   -2.4750    0.0000 N   0  0  0  0  0  0  0  0  0  0  0  0
    1.4289   -1.6500    0.0000 C   0  0  0  0  0  0  0  0  0  0  0  0
    0.7145   -1.2375    0.0000 C   0  0  0  0  0  0  0  0  0  0  0  0
    0.0000   -1.6500    0.0000 H   0  0  0  0  0  0  0  0  0  0  0  0
    0.7145   -0.4125    0.0000 N   0  0  0  0  0  0  0  0  0  0  0  0
    1.4289    0.0000    0.0000 C   0  0  0  0  0  0  0  0  0  0  0  0
    1.4289    0.8250    0.0000 H   0  0  0  0  0  0  0  0  0  0  0  0
    2.1434   -0.4125    0.0000 C   0  0  0  0  0  0  0  0  0  0  0  0
    2.8579    0.0000    0.0000 C   0  0  0  0  0  0  0  0  0  0  0  0
    3.5724   -0.4125    0.0000 C   0  0  0  0  0  0  0  0  0  0  0  0
    3.5724   -1.2375    0.0000 C   0  0  0  0  0  0  0  0  0  0  0  0
    2.8579   -1.6500    0.0000 C   0  0  0  0  0  0  0  0  0  0  0  0
    2.8579   -2.4750    0.0000 H   0  0  0  0  0  0  0  0  0  0  0  0
    2.1434   -1.2375    0.0000 C   0  0  0  0  0  0  0  0  0  0  0  0
    4.2868   -1.6500    0.0000 H   0  0  0  0  0  0  0  0  0  0  0  0
    4.2868   -0.0000    0.0000 H   0  0  0  0  0  0  0  0  0  0  0  0
    2.8579    0.8250    0.0000 H   0  0  0  0  0  0  0  0  0  0  0  0
    2.1434   -2.8875    0.0000 H   0  0  0  0  0  0  0  0  0  0  0  0
    0.7145   -4.5375    0.0000 H   0  0  0  0  0  0  0  0  0  0  0  0
    0.0000   -3.3000    0.0000 H   0  0  0  0  0  0  0  0  0  0  0  0
    0.0000   -4.9500    0.0000 C   0  0  0  0  0  0  0  0  0  0  0  0
   -0.7145   -4.5375    0.0000 H   0  0  0  0  0  0  0  0  0  0  0  0
   -1.7992   -7.3372    0.0000 H   0  0  0  0  0  0  0  0  0  0  0  0
   -1.0587   -7.3372    0.0000 H   0  0  0  0  0  0  0  0  0  0  0  0
   -1.7309   -5.4730    0.0000 H   0  0  0  0  0  0  0  0  0  0  0  0
   -2.8579   -5.7750    0.0000 H   0  0  0  0  0  0  0  0  0  0  0  0
   -2.5559   -6.9020    0.0000 H   0  0  0  0  0  0  0  0  0  0  0  0
  1  2  1  0  0  0  0
  2  3  1  0  0  0  0
  3  4  1  0  0  0  0
  4  5  1  0  0  0  0
  5  6  2  0  0  0  0
  6  7  1  0  0  0  0
  6  8  1  0  0  0  0
  8  9  1  0  0  0  0
  8 10  2  0  0  0  0
 10 11  1  0  0  0  0
 10 12  1  0  0  0  0
 12 13  1  0  0  0  0
 12 14  2  0  0  0  0
  5 14  1  0  0  0  0
 14 15  1  0  0  0  0
  4 16  1  0  0  0  0
  4 17  1  0  0  0  0
  3 18  1  0  0  0  0
 18 19  2  0  0  0  0
 19 20  1  0  0  0  0
 19 21  1  0  0  0  0
 21 22  1  0  0  0  0
 21 23  2  0  0  0  0
 23 24  1  0  0  0  0
 23 25  1  0  0  0  0
 25 26  1  0  0  0  0
 26 27  1  0  0  0  0
 27 28  2  0  0  0  0
 27 29  1  0  0  0  0
 29 30  1  0  0  0  0
 30 31  2  0  0  0  0
 31 32  1  0  0  0  0
 31 33  1  0  0  0  0
 33 34  2  0  0  0  0
 34 35  1  0  0  0  0
 34 36  1  0  0  0  0
 36 37  2  0  0  0  0
 37 38  1  0  0  0  0
 38 39  2  0  0  0  0
 39 40  1  0  0  0  0
 40 41  1  0  0  0  0
 40 42  2  0  0  0  0
 30 42  1  0  0  0  0
 36 42  1  0  0  0  0
 39 43  1  0  0  0  0
 38 44  1  0  0  0  0
 37 45  1  0  0  0  0
 29 46  1  0  0  0  0
 26 47  1  0  0  0  0
 26 48  1  0  0  0  0
 25 49  2  0  0  0  0
 18 49  1  0  0  0  0
 49 50  1  0  0  0  0
  2 51  1  0  0  0  0
  2 52  1  0  0  0  0
  1 53  1  0  0  0  0
  1 54  1  0  0  0  0
  1 55  1  0  0  0  0
M  END
> <Potency>
11.8429306789785

> <pIC50>
4.926540812797782

> <Outcome>
Inactive

> <is_active>
0

$$$$

  Mrv1921 08232120312D          

 49 52  0  0  0  0            999 V2000
    0.0000   -2.4750    0.0000 O   0  0  0  0  0  0  0  0  0  0  0  0
    0.7145   -2.8875    0.0000 C   0  0  0  0  0  0  0  0  0  0  0  0
    0.7145   -3.7125    0.0000 C   0  0  0  0  0  0  0  0  0  0  0  0
    0.0000   -4.1250    0.0000 C   0  0  0  0  0  0  0  0  0  0  0  0
    0.0000   -4.9500    0.0000 C   0  0  0  0  0  0  0  0  0  0  0  0
    0.7145   -5.3625    0.0000 H   0  0  0  0  0  0  0  0  0  0  0  0
   -0.7145   -5.3625    0.0000 C   0  0  0  0  0  0  0  0  0  0  0  0
   -0.7145   -6.1875    0.0000 Cl  0  0  0  0  0  0  0  0  0  0  0  0
   -1.4289   -4.9500    0.0000 C   0  0  0  0  0  0  0  0  0  0  0  0
   -2.1434   -5.3625    0.0000 H   0  0  0  0  0  0  0  0  0  0  0  0
   -1.4289   -4.1250    0.0000 C   0  0  0  0  0  0  0  0  0  0  0  0
   -2.1434   -3.7125    0.0000 N   0  0  0  0  0  0  0  0  0  0  0  0
   -2.8579   -4.1250    0.0000 C   0  0  0  0  0  0  0  0  0  0  0  0
   -3.5724   -3.7125    0.0000 C   0  0  0  0  0  0  0  0  0  0  0  0
   -4.2868   -4.1250    0.0000 C   0  0  0  0  0  0  0  0  0  0  0  0
   -4.2868   -4.9500    0.0000 H   0  0  0  0  0  0  0  0  0  0  0  0
   -5.0013   -3.7125    0.0000 C   0  0  0  0  0  0  0  0  0  0  0  0
   -5.7158   -4.1250    0.0000 H   0  0  0  0  0  0  0  0  0  0  0  0
   -5.0013   -2.8875    0.0000 C   0  0  0  0  0  0  0  0  0  0  0  0
   -5.7158   -2.4750    0.0000 Br  0  0  0  0  0  0  0  0  0  0  0  0
   -4.2868   -2.4750    0.0000 C   0  0  0  0  0  0  0  0  0  0  0  0
   -4.2868   -1.6500    0.0000 H   0  0  0  0  0  0  0  0  0  0  0  0
   -3.5724   -2.8875    0.0000 C   0  0  0  0  0  0  0  0  0  0  0  0
   -2.8579   -2.4750    0.0000 H   0  0  0  0  0  0  0  0  0  0  0  0
   -3.2281   -4.8622    0.0000 H   0  0  0  0  0  0  0  0  0  0  0  0
   -2.4876   -4.8622    0.0000 H   0  0  0  0  0  0  0  0  0  0  0  0
   -2.1434   -2.8875    0.0000 H   0  0  0  0  0  0  0  0  0  0  0  0
   -0.7145   -3.7125    0.0000 C   0  0  0  0  0  0  0  0  0  0  0  0
   -0.7145   -2.8875    0.0000 H   0  0  0  0  0  0  0  0  0  0  0  0
    1.1678   -4.4018    0.0000 H   0  0  0  0  0  0  0  0  0  0  0  0
    1.5381   -3.7605    0.0000 H   0  0  0  0  0  0  0  0  0  0  0  0
    1.4289   -2.4750    0.0000 N   0  0  0  0  0  0  0  0  0  0  0  0
    1.4289   -1.6500    0.0000 C   0  0  0  0  0  0  0  0  0  0  0  0
    0.7145   -1.2375    0.0000 C   0  0  0  0  0  0  0  0  0  0  0  0
    0.0000   -1.6500    0.0000 H   0  0  0  0  0  0  0  0  0  0  0  0
    0.7145   -0.4125    0.0000 N   0  0  0  0  0  0  0  0  0  0  0  0
    1.4289    0.0000    0.0000 C   0  0  0  0  0  0  0  0  0  0  0  0
    1.4289    0.8250    0.0000 H   0  0  0  0  0  0  0  0  0  0  0  0
    2.1434   -0.4125    0.0000 C   0  0  0  0  0  0  0  0  0  0  0  0
    2.8579    0.0000    0.0000 C   0  0  0  0  0  0  0  0  0  0  0  0
    3.5724   -0.4125    0.0000 C   0  0  0  0  0  0  0  0  0  0  0  0
    3.5724   -1.2375    0.0000 C   0  0  0  0  0  0  0  0  0  0  0  0
    2.8579   -1.6500    0.0000 C   0  0  0  0  0  0  0  0  0  0  0  0
    2.8579   -2.4750    0.0000 H   0  0  0  0  0  0  0  0  0  0  0  0
    2.1434   -1.2375    0.0000 C   0  0  0  0  0  0  0  0  0  0  0  0
    4.2868   -1.6500    0.0000 H   0  0  0  0  0  0  0  0  0  0  0  0
    4.2868   -0.0000    0.0000 H   0  0  0  0  0  0  0  0  0  0  0  0
    2.8579    0.8250    0.0000 H   0  0  0  0  0  0  0  0  0  0  0  0
    2.1434   -2.8875    0.0000 H   0  0  0  0  0  0  0  0  0  0  0  0
  1  2  2  0  0  0  0
  2  3  1  0  0  0  0
  3  4  1  0  0  0  0
  4  5  2  0  0  0  0
  5  6  1  0  0  0  0
  5  7  1  0  0  0  0
  7  8  1  0  0  0  0
  7  9  2  0  0  0  0
  9 10  1  0  0  0  0
  9 11  1  0  0  0  0
 11 12  1  0  0  0  0
 12 13  1  0  0  0  0
 13 14  1  0  0  0  0
 14 15  2  0  0  0  0
 15 16  1  0  0  0  0
 15 17  1  0  0  0  0
 17 18  1  0  0  0  0
 17 19  2  0  0  0  0
 19 20  1  0  0  0  0
 19 21  1  0  0  0  0
 21 22  1  0  0  0  0
 21 23  2  0  0  0  0
 14 23  1  0  0  0  0
 23 24  1  0  0  0  0
 13 25  1  0  0  0  0
 13 26  1  0  0  0  0
 12 27  1  0  0  0  0
 11 28  2  0  0  0  0
  4 28  1  0  0  0  0
 28 29  1  0  0  0  0
  3 30  1  0  0  0  0
  3 31  1  0  0  0  0
  2 32  1  0  0  0  0
 32 33  1  0  0  0  0
 33 34  2  0  0  0  0
 34 35  1  0  0  0  0
 34 36  1  0  0  0  0
 36 37  2  0  0  0  0
 37 38  1  0  0  0  0
 37 39  1  0  0  0  0
 39 40  2  0  0  0  0
 40 41  1  0  0  0  0
 41 42  2  0  0  0  0
 42 43  1  0  0  0  0
 43 44  1  0  0  0  0
 43 45  2  0  0  0  0
 33 45  1  0  0  0  0
 39 45  1  0  0  0  0
 42 46  1  0  0  0  0
 41 47  1  0  0  0  0
 40 48  1  0  0  0  0
 32 49  1  0  0  0  0
M  END
> <Potency>
11.9118261313644

> <pIC50>
4.924021654303907

> <Outcome>
Inactive

> <is_active>
0

$$$$

  Mrv1921 08232120312D          

 65 69  0  0  0  0            999 V2000
    0.1424   -4.7867    0.0000 N   0  0  0  0  0  0  0  0  0  0  0  0
    0.6727   -4.1547    0.0000 C   0  0  0  0  0  0  0  0  0  0  0  0
    1.2030   -3.5227    0.0000 C   0  0  0  0  0  0  0  0  0  0  0  0
    0.9209   -2.7474    0.0000 C   0  0  0  0  0  0  0  0  0  0  0  0
    1.4512   -2.1154    0.0000 N   0  0  0  0  0  0  0  0  0  0  0  0
    1.1690   -1.3402    0.0000 C   0  0  0  0  0  0  0  0  0  0  0  0
    0.5072   -0.8475    0.0000 H   0  0  0  0  0  0  0  0  0  0  0  0
    0.3786   -1.5768    0.0000 H   0  0  0  0  0  0  0  0  0  0  0  0
    1.6993   -0.7082    0.0000 C   0  0  0  0  0  0  0  0  0  0  0  0
    1.7951    0.1112    0.0000 H   0  0  0  0  0  0  0  0  0  0  0  0
    1.0992   -0.1421    0.0000 H   0  0  0  0  0  0  0  0  0  0  0  0
    2.5118   -0.8515    0.0000 N   0  0  0  0  0  0  0  0  0  0  0  0
    3.0421   -0.2195    0.0000 C   0  0  0  0  0  0  0  0  0  0  0  0
    2.7599    0.5558    0.0000 O   0  0  0  0  0  0  0  0  0  0  0  0
    3.8545   -0.3627    0.0000 C   0  0  0  0  0  0  0  0  0  0  0  0
    4.3848    0.2692    0.0000 C   0  0  0  0  0  0  0  0  0  0  0  0
    4.9151   -0.3627    0.0000 C   0  0  0  0  0  0  0  0  0  0  0  0
    4.6330   -1.1380    0.0000 O   0  0  0  0  0  0  0  0  0  0  0  0
    5.7276   -0.2195    0.0000 N   0  0  0  0  0  0  0  0  0  0  0  0
    6.2579   -0.8515    0.0000 C   0  0  0  0  0  0  0  0  0  0  0  0
    7.0704   -0.7082    0.0000 C   0  0  0  0  0  0  0  0  0  0  0  0
    7.7121   -0.1898    0.0000 H   0  0  0  0  0  0  0  0  0  0  0  0
    7.6007   -1.3402    0.0000 N   0  0  0  0  0  0  0  0  0  0  0  0
    7.3185   -2.1154    0.0000 C   0  0  0  0  0  0  0  0  0  0  0  0
    7.8488   -2.7474    0.0000 H   0  0  0  0  0  0  0  0  0  0  0  0
    6.5060   -2.2587    0.0000 C   0  0  0  0  0  0  0  0  0  0  0  0
    6.2239   -3.0340    0.0000 C   0  0  0  0  0  0  0  0  0  0  0  0
    5.4114   -3.1772    0.0000 C   0  0  0  0  0  0  0  0  0  0  0  0
    4.8811   -2.5452    0.0000 C   0  0  0  0  0  0  0  0  0  0  0  0
    5.1633   -1.7700    0.0000 C   0  0  0  0  0  0  0  0  0  0  0  0
    5.4454   -0.9947    0.0000 H   0  0  0  0  0  0  0  0  0  0  0  0
    5.9757   -1.6267    0.0000 C   0  0  0  0  0  0  0  0  0  0  0  0
    4.0686   -2.6885    0.0000 H   0  0  0  0  0  0  0  0  0  0  0  0
    5.1292   -3.9525    0.0000 H   0  0  0  0  0  0  0  0  0  0  0  0
    6.7542   -3.6659    0.0000 H   0  0  0  0  0  0  0  0  0  0  0  0
    6.5245   -0.0060    0.0000 H   0  0  0  0  0  0  0  0  0  0  0  0
    3.6704    0.6817    0.0000 C   0  0  0  0  0  0  0  0  0  0  0  0
    3.5121   -0.1279    0.0000 H   0  0  0  0  0  0  0  0  0  0  0  0
    4.3848    1.0942    0.0000 H   0  0  0  0  0  0  0  0  0  0  0  0
    3.6704    1.5067    0.0000 C   0  0  0  0  0  0  0  0  0  0  0  0
    3.2170    2.1960    0.0000 H   0  0  0  0  0  0  0  0  0  0  0  0
    2.8467    1.5547    0.0000 H   0  0  0  0  0  0  0  0  0  0  0  0
    4.3848    1.9192    0.0000 O   0  0  0  0  0  0  0  0  0  0  0  0
    5.0993    1.5067    0.0000 C   0  0  0  0  0  0  0  0  0  0  0  0
    5.8138    1.9192    0.0000 C   0  0  0  0  0  0  0  0  0  0  0  0
    6.5282    1.5067    0.0000 C   0  0  0  0  0  0  0  0  0  0  0  0
    6.5282    0.6817    0.0000 C   0  0  0  0  0  0  0  0  0  0  0  0
    7.2427    0.2692    0.0000 Cl  0  0  0  0  0  0  0  0  0  0  0  0
    5.8138    0.2692    0.0000 C   0  0  0  0  0  0  0  0  0  0  0  0
    5.0661   -0.0794    0.0000 H   0  0  0  0  0  0  0  0  0  0  0  0
    5.0993    0.6817    0.0000 C   0  0  0  0  0  0  0  0  0  0  0  0
    7.2427    1.9192    0.0000 H   0  0  0  0  0  0  0  0  0  0  0  0
    5.8138    2.7442    0.0000 H   0  0  0  0  0  0  0  0  0  0  0  0
    3.7587   -1.1822    0.0000 H   0  0  0  0  0  0  0  0  0  0  0  0
    4.4546   -0.9289    0.0000 H   0  0  0  0  0  0  0  0  0  0  0  0
    2.7939   -1.6267    0.0000 C   0  0  0  0  0  0  0  0  0  0  0  0
    3.4557   -2.1194    0.0000 H   0  0  0  0  0  0  0  0  0  0  0  0
    3.5843   -1.3901    0.0000 H   0  0  0  0  0  0  0  0  0  0  0  0
    2.2636   -2.2587    0.0000 C   0  0  0  0  0  0  0  0  0  0  0  0
    2.1678   -3.0781    0.0000 H   0  0  0  0  0  0  0  0  0  0  0  0
    2.8637   -2.8249    0.0000 H   0  0  0  0  0  0  0  0  0  0  0  0
    0.2591   -2.2548    0.0000 H   0  0  0  0  0  0  0  0  0  0  0  0
    0.1305   -2.9840    0.0000 H   0  0  0  0  0  0  0  0  0  0  0  0
    1.8648   -4.0153    0.0000 H   0  0  0  0  0  0  0  0  0  0  0  0
    1.9934   -3.2861    0.0000 H   0  0  0  0  0  0  0  0  0  0  0  0
  1  2  3  0  0  0  0
  2  3  1  0  0  0  0
  3  4  1  0  0  0  0
  4  5  1  0  0  0  0
  5  6  1  0  0  0  0
  6  7  1  0  0  0  0
  6  8  1  0  0  0  0
  6  9  1  0  0  0  0
  9 10  1  0  0  0  0
  9 11  1  0  0  0  0
  9 12  1  0  0  0  0
 12 13  1  0  0  0  0
 13 14  2  0  0  0  0
 13 15  1  0  0  0  0
 15 16  1  0  0  0  0
 16 17  1  0  0  0  0
 17 18  2  0  0  0  0
 17 19  1  0  0  0  0
 19 20  1  0  0  0  0
 20 21  2  0  0  0  0
 21 22  1  0  0  0  0
 21 23  1  0  0  0  0
 23 24  2  0  0  0  0
 24 25  1  0  0  0  0
 24 26  1  0  0  0  0
 26 27  2  0  0  0  0
 27 28  1  0  0  0  0
 28 29  2  0  0  0  0
 29 30  1  0  0  0  0
 30 31  1  0  0  0  0
 30 32  2  0  0  0  0
 20 32  1  0  0  0  0
 26 32  1  0  0  0  0
 29 33  1  0  0  0  0
 28 34  1  0  0  0  0
 27 35  1  0  0  0  0
 19 36  1  0  0  0  0
 16 37  1  0  0  0  0
 37 38  1  0  0  0  0
 37 39  1  0  0  0  0
 37 40  1  0  0  0  0
 40 41  1  0  0  0  0
 40 42  1  0  0  0  0
 40 43  1  0  0  0  0
 43 44  1  0  0  0  0
 44 45  2  0  0  0  0
 45 46  1  0  0  0  0
 46 47  2  0  0  0  0
 47 48  1  0  0  0  0
 47 49  1  0  0  0  0
 49 50  1  0  0  0  0
 49 51  2  0  0  0  0
 16 51  1  0  0  0  0
 44 51  1  0  0  0  0
 46 52  1  0  0  0  0
 45 53  1  0  0  0  0
 15 54  1  0  0  0  0
 15 55  1  0  0  0  0
 12 56  1  0  0  0  0
 56 57  1  0  0  0  0
 56 58  1  0  0  0  0
 56 59  1  0  0  0  0
  5 59  1  0  0  0  0
 59 60  1  0  0  0  0
 59 61  1  0  0  0  0
  4 62  1  0  0  0  0
  4 63  1  0  0  0  0
  3 64  1  0  0  0  0
  3 65  1  0  0  0  0
M  END
> <Potency>
21.3015932015531

> <pIC50>
4.671587913332753

> <Outcome>
Inactive

> <is_active>
0

$$$$

  Mrv1921 08232120312D          

 62 65  0  0  0  0            999 V2000
   -2.1434   -3.7125    0.0000 C   0  0  0  0  0  0  0  0  0  0  0  0
   -1.4289   -3.3000    0.0000 C   0  0  0  0  0  0  0  0  0  0  0  0
   -1.0164   -4.0145    0.0000 C   0  0  0  0  0  0  0  0  0  0  0  0
   -0.9088   -4.8324    0.0000 H   0  0  0  0  0  0  0  0  0  0  0  0
   -0.2196   -4.2280    0.0000 H   0  0  0  0  0  0  0  0  0  0  0  0
   -0.5142   -3.3600    0.0000 H   0  0  0  0  0  0  0  0  0  0  0  0
   -1.8414   -2.5855    0.0000 C   0  0  0  0  0  0  0  0  0  0  0  0
   -1.0235   -2.4778    0.0000 H   0  0  0  0  0  0  0  0  0  0  0  0
   -1.6279   -1.7886    0.0000 H   0  0  0  0  0  0  0  0  0  0  0  0
   -2.4960   -2.0833    0.0000 H   0  0  0  0  0  0  0  0  0  0  0  0
   -0.7145   -2.8875    0.0000 C   0  0  0  0  0  0  0  0  0  0  0  0
   -0.7145   -2.0625    0.0000 C   0  0  0  0  0  0  0  0  0  0  0  0
   -0.8101   -1.2431    0.0000 H   0  0  0  0  0  0  0  0  0  0  0  0
    0.0000   -1.6500    0.0000 C   0  0  0  0  0  0  0  0  0  0  0  0
    0.7053   -1.2221    0.0000 H   0  0  0  0  0  0  0  0  0  0  0  0
    0.7145   -2.0625    0.0000 C   0  0  0  0  0  0  0  0  0  0  0  0
    1.4289   -1.6500    0.0000 N   0  0  0  0  0  0  0  0  0  0  0  0
    1.4289   -0.8250    0.0000 C   0  0  0  0  0  0  0  0  0  0  0  0
    2.1434   -0.4125    0.0000 O   0  0  0  0  0  0  0  0  0  0  0  0
    0.7145   -0.4125    0.0000 C   0  0  0  0  0  0  0  0  0  0  0  0
    0.6282    0.4080    0.0000 C   0  0  0  0  0  0  0  0  0  0  0  0
    1.2413    0.9600    0.0000 H   0  0  0  0  0  0  0  0  0  0  0  0
   -0.1787    0.5795    0.0000 O   0  0  0  0  0  0  0  0  0  0  0  0
   -0.5912   -0.1350    0.0000 C   0  0  0  0  0  0  0  0  0  0  0  0
   -1.4117   -0.2212    0.0000 H   0  0  0  0  0  0  0  0  0  0  0  0
   -0.0392   -0.7481    0.0000 N   0  0  0  0  0  0  0  0  0  0  0  0
    2.1434   -2.0625    0.0000 C   0  0  0  0  0  0  0  0  0  0  0  0
    2.8579   -1.6500    0.0000 C   0  0  0  0  0  0  0  0  0  0  0  0
    2.8579   -0.8250    0.0000 O   0  0  0  0  0  0  0  0  0  0  0  0
    3.5724   -2.0625    0.0000 N   0  0  0  0  0  0  0  0  0  0  0  0
    4.2868   -1.6500    0.0000 C   0  0  0  0  0  0  0  0  0  0  0  0
    5.0013   -2.0625    0.0000 C   0  0  0  0  0  0  0  0  0  0  0  0
    5.7158   -1.6500    0.0000 C   0  0  0  0  0  0  0  0  0  0  0  0
    5.7158   -0.8250    0.0000 H   0  0  0  0  0  0  0  0  0  0  0  0
    6.4302   -2.0625    0.0000 C   0  0  0  0  0  0  0  0  0  0  0  0
    7.1447   -1.6500    0.0000 H   0  0  0  0  0  0  0  0  0  0  0  0
    6.4302   -2.8875    0.0000 C   0  0  0  0  0  0  0  0  0  0  0  0
    7.1447   -3.3000    0.0000 H   0  0  0  0  0  0  0  0  0  0  0  0
    5.7158   -3.3000    0.0000 N   0  0  0  0  0  0  0  0  0  0  0  0
    5.0013   -2.8875    0.0000 C   0  0  0  0  0  0  0  0  0  0  0  0
    4.2868   -3.3000    0.0000 H   0  0  0  0  0  0  0  0  0  0  0  0
    4.6571   -0.9128    0.0000 H   0  0  0  0  0  0  0  0  0  0  0  0
    3.9166   -0.9128    0.0000 H   0  0  0  0  0  0  0  0  0  0  0  0
    3.5724   -2.8875    0.0000 H   0  0  0  0  0  0  0  0  0  0  0  0
    2.1434   -2.8875    0.0000 C   0  0  0  0  0  0  0  0  0  0  0  0
    2.8579   -3.3000    0.0000 C   0  0  0  0  0  0  0  0  0  0  0  0
    2.8579   -2.4750    0.0000 H   0  0  0  0  0  0  0  0  0  0  0  0
    2.8579   -4.1250    0.0000 C   0  0  0  0  0  0  0  0  0  0  0  0
    3.5724   -4.5375    0.0000 H   0  0  0  0  0  0  0  0  0  0  0  0
    2.1434   -4.5375    0.0000 C   0  0  0  0  0  0  0  0  0  0  0  0
    2.1434   -5.3625    0.0000 H   0  0  0  0  0  0  0  0  0  0  0  0
    1.4289   -4.1250    0.0000 N   0  0  0  0  0  0  0  0  0  0  0  0
    1.4289   -3.3000    0.0000 C   0  0  0  0  0  0  0  0  0  0  0  0
    1.4289   -2.4750    0.0000 H   0  0  0  0  0  0  0  0  0  0  0  0
    2.1434   -1.2375    0.0000 H   0  0  0  0  0  0  0  0  0  0  0  0
    0.7145   -2.8875    0.0000 C   0  0  0  0  0  0  0  0  0  0  0  0
    0.7145   -3.7125    0.0000 H   0  0  0  0  0  0  0  0  0  0  0  0
    0.0000   -3.3000    0.0000 C   0  0  0  0  0  0  0  0  0  0  0  0
    0.0000   -2.4750    0.0000 H   0  0  0  0  0  0  0  0  0  0  0  0
   -2.5559   -2.9980    0.0000 H   0  0  0  0  0  0  0  0  0  0  0  0
   -2.8579   -4.1250    0.0000 H   0  0  0  0  0  0  0  0  0  0  0  0
   -1.7309   -4.4270    0.0000 H   0  0  0  0  0  0  0  0  0  0  0  0
  1  2  1  0  0  0  0
  2  3  1  0  0  0  0
  3  4  1  0  0  0  0
  3  5  1  0  0  0  0
  3  6  1  0  0  0  0
  2  7  1  0  0  0  0
  7  8  1  0  0  0  0
  7  9  1  0  0  0  0
  7 10  1  0  0  0  0
  2 11  1  0  0  0  0
 11 12  2  0  0  0  0
 12 13  1  0  0  0  0
 12 14  1  0  0  0  0
 14 15  1  0  0  0  0
 14 16  2  0  0  0  0
 16 17  1  0  0  0  0
 17 18  1  0  0  0  0
 18 19  2  0  0  0  0
 18 20  1  0  0  0  0
 20 21  2  0  0  0  0
 21 22  1  0  0  0  0
 21 23  1  0  0  0  0
 23 24  1  0  0  0  0
 24 25  1  0  0  0  0
 24 26  2  0  0  0  0
 20 26  1  0  0  0  0
 17 27  1  0  0  0  0
 27 28  1  0  0  0  0
 28 29  2  0  0  0  0
 28 30  1  0  0  0  0
 30 31  1  0  0  0  0
 31 32  1  0  0  0  0
 32 33  2  0  0  0  0
 33 34  1  0  0  0  0
 33 35  1  0  0  0  0
 35 36  1  0  0  0  0
 35 37  2  0  0  0  0
 37 38  1  0  0  0  0
 37 39  1  0  0  0  0
 39 40  2  0  0  0  0
 32 40  1  0  0  0  0
 40 41  1  0  0  0  0
 31 42  1  0  0  0  0
 31 43  1  0  0  0  0
 30 44  1  0  0  0  0
 27 45  1  0  0  0  0
 45 46  2  0  0  0  0
 46 47  1  0  0  0  0
 46 48  1  0  0  0  0
 48 49  1  0  0  0  0
 48 50  2  0  0  0  0
 50 51  1  0  0  0  0
 50 52  1  0  0  0  0
 52 53  2  0  0  0  0
 45 53  1  0  0  0  0
 53 54  1  0  0  0  0
 27 55  1  0  0  0  0
 16 56  1  0  0  0  0
 56 57  1  0  0  0  0
 56 58  2  0  0  0  0
 11 58  1  0  0  0  0
 58 59  1  0  0  0  0
  1 60  1  0  0  0  0
  1 61  1  0  0  0  0
  1 62  1  0  0  0  0
M  END
> <Potency>
25.2804303733105

> <pIC50>
4.597215536910105

> <Outcome>
Inactive

> <is_active>
0

$$$$

  Mrv1921 08232120312D          

 63 65  0  0  0  0            999 V2000
    1.5077   -3.6573    0.0000 C   0  0  0  0  0  0  0  0  0  0  0  0
    2.3178   -3.5014    0.0000 N   0  0  0  0  0  0  0  0  0  0  0  0
    2.5878   -2.7218    0.0000 C   0  0  0  0  0  0  0  0  0  0  0  0
    3.3674   -2.9919    0.0000 H   0  0  0  0  0  0  0  0  0  0  0  0
    2.8579   -1.9423    0.0000 H   0  0  0  0  0  0  0  0  0  0  0  0
    1.8083   -2.4518    0.0000 H   0  0  0  0  0  0  0  0  0  0  0  0
    2.8579   -4.1250    0.0000 C   0  0  0  0  0  0  0  0  0  0  0  0
    2.5878   -4.9046    0.0000 O   0  0  0  0  0  0  0  0  0  0  0  0
    3.6680   -3.9691    0.0000 C   0  0  0  0  0  0  0  0  0  0  0  0
    4.2081   -4.5927    0.0000 N   0  0  0  0  0  0  0  0  0  0  0  0
    5.0182   -4.4368    0.0000 C   0  0  0  0  0  0  0  0  0  0  0  0
    5.2883   -3.6573    0.0000 O   0  0  0  0  0  0  0  0  0  0  0  0
    5.5583   -5.0605    0.0000 C   0  0  0  0  0  0  0  0  0  0  0  0
    5.2883   -5.8400    0.0000 C   0  0  0  0  0  0  0  0  0  0  0  0
    5.8284   -6.4637    0.0000 C   0  0  0  0  0  0  0  0  0  0  0  0
    6.0984   -5.6841    0.0000 H   0  0  0  0  0  0  0  0  0  0  0  0
    5.5583   -7.2432    0.0000 C   0  0  0  0  0  0  0  0  0  0  0  0
    6.0984   -7.8668    0.0000 H   0  0  0  0  0  0  0  0  0  0  0  0
    4.7482   -7.3991    0.0000 C   0  0  0  0  0  0  0  0  0  0  0  0
    4.4782   -8.1787    0.0000 H   0  0  0  0  0  0  0  0  0  0  0  0
    4.2081   -6.7755    0.0000 N   0  0  0  0  0  0  0  0  0  0  0  0
    4.4782   -5.9959    0.0000 C   0  0  0  0  0  0  0  0  0  0  0  0
    3.6680   -6.1518    0.0000 H   0  0  0  0  0  0  0  0  0  0  0  0
    6.3685   -4.9046    0.0000 N   0  0  0  0  0  0  0  0  0  0  0  0
    6.6385   -4.1250    0.0000 C   0  0  0  0  0  0  0  0  0  0  0  0
    6.0984   -3.5014    0.0000 O   0  0  0  0  0  0  0  0  0  0  0  0
    7.4486   -3.9691    0.0000 C   0  0  0  0  0  0  0  0  0  0  0  0
    7.7987   -3.2220    0.0000 C   0  0  0  0  0  0  0  0  0  0  0  0
    7.4001   -2.4997    0.0000 H   0  0  0  0  0  0  0  0  0  0  0  0
    8.6174   -3.3241    0.0000 O   0  0  0  0  0  0  0  0  0  0  0  0
    8.7733   -4.1342    0.0000 C   0  0  0  0  0  0  0  0  0  0  0  0
    9.5203   -4.4843    0.0000 H   0  0  0  0  0  0  0  0  0  0  0  0
    8.0510   -4.5329    0.0000 N   0  0  0  0  0  0  0  0  0  0  0  0
    6.9086   -5.5282    0.0000 C   0  0  0  0  0  0  0  0  0  0  0  0
    7.7187   -5.3723    0.0000 C   0  0  0  0  0  0  0  0  0  0  0  0
    7.1923   -4.7371    0.0000 H   0  0  0  0  0  0  0  0  0  0  0  0
    8.2588   -5.9959    0.0000 C   0  0  0  0  0  0  0  0  0  0  0  0
    9.0689   -5.8400    0.0000 H   0  0  0  0  0  0  0  0  0  0  0  0
    7.9887   -6.7755    0.0000 C   0  0  0  0  0  0  0  0  0  0  0  0
    8.5288   -7.3991    0.0000 C   0  0  0  0  0  0  0  0  0  0  0  0
    9.0689   -8.0228    0.0000 C   0  0  0  0  0  0  0  0  0  0  0  0
    8.4453   -8.5628    0.0000 H   0  0  0  0  0  0  0  0  0  0  0  0
    9.6090   -8.6464    0.0000 H   0  0  0  0  0  0  0  0  0  0  0  0
    9.6926   -7.4827    0.0000 H   0  0  0  0  0  0  0  0  0  0  0  0
    7.9052   -7.9392    0.0000 C   0  0  0  0  0  0  0  0  0  0  0  0
    7.6449   -7.1564    0.0000 H   0  0  0  0  0  0  0  0  0  0  0  0
    7.0823   -7.8801    0.0000 H   0  0  0  0  0  0  0  0  0  0  0  0
    7.5357   -8.6768    0.0000 H   0  0  0  0  0  0  0  0  0  0  0  0
    9.1525   -6.8590    0.0000 C   0  0  0  0  0  0  0  0  0  0  0  0
    9.9353   -6.5987    0.0000 H   0  0  0  0  0  0  0  0  0  0  0  0
    9.2115   -6.0361    0.0000 H   0  0  0  0  0  0  0  0  0  0  0  0
    8.4148   -6.4895    0.0000 H   0  0  0  0  0  0  0  0  0  0  0  0
    7.1786   -6.9314    0.0000 C   0  0  0  0  0  0  0  0  0  0  0  0
    6.3920   -7.1801    0.0000 H   0  0  0  0  0  0  0  0  0  0  0  0
    6.6385   -6.3077    0.0000 C   0  0  0  0  0  0  0  0  0  0  0  0
    7.4486   -6.1518    0.0000 H   0  0  0  0  0  0  0  0  0  0  0  0
    4.7482   -5.2164    0.0000 H   0  0  0  0  0  0  0  0  0  0  0  0
    3.9381   -5.3723    0.0000 H   0  0  0  0  0  0  0  0  0  0  0  0
    4.2592   -3.3937    0.0000 H   0  0  0  0  0  0  0  0  0  0  0  0
    3.5595   -3.1513    0.0000 H   0  0  0  0  0  0  0  0  0  0  0  0
    1.3518   -2.8471    0.0000 H   0  0  0  0  0  0  0  0  0  0  0  0
    0.6975   -3.8132    0.0000 H   0  0  0  0  0  0  0  0  0  0  0  0
    1.6636   -4.4674    0.0000 H   0  0  0  0  0  0  0  0  0  0  0  0
  1  2  1  0  0  0  0
  2  3  1  0  0  0  0
  3  4  1  0  0  0  0
  3  5  1  0  0  0  0
  3  6  1  0  0  0  0
  2  7  1  0  0  0  0
  7  8  2  0  0  0  0
  7  9  1  0  0  0  0
  9 10  1  0  0  0  0
 10 11  1  0  0  0  0
 11 12  2  0  0  0  0
 11 13  1  0  0  0  0
 13 14  1  0  0  0  0
 14 15  2  0  0  0  0
 15 16  1  0  0  0  0
 15 17  1  0  0  0  0
 17 18  1  0  0  0  0
 17 19  2  0  0  0  0
 19 20  1  0  0  0  0
 19 21  1  0  0  0  0
 21 22  2  0  0  0  0
 14 22  1  0  0  0  0
 22 23  1  0  0  0  0
 13 24  1  0  0  0  0
 24 25  1  0  0  0  0
 25 26  2  0  0  0  0
 25 27  1  0  0  0  0
 27 28  2  0  0  0  0
 28 29  1  0  0  0  0
 28 30  1  0  0  0  0
 30 31  1  0  0  0  0
 31 32  1  0  0  0  0
 31 33  2  0  0  0  0
 27 33  1  0  0  0  0
 24 34  1  0  0  0  0
 34 35  2  0  0  0  0
 35 36  1  0  0  0  0
 35 37  1  0  0  0  0
 37 38  1  0  0  0  0
 37 39  2  0  0  0  0
 39 40  1  0  0  0  0
 40 41  1  0  0  0  0
 41 42  1  0  0  0  0
 41 43  1  0  0  0  0
 41 44  1  0  0  0  0
 40 45  1  0  0  0  0
 45 46  1  0  0  0  0
 45 47  1  0  0  0  0
 45 48  1  0  0  0  0
 40 49  1  0  0  0  0
 49 50  1  0  0  0  0
 49 51  1  0  0  0  0
 49 52  1  0  0  0  0
 39 53  1  0  0  0  0
 53 54  1  0  0  0  0
 53 55  2  0  0  0  0
 34 55  1  0  0  0  0
 55 56  1  0  0  0  0
 13 57  1  0  0  0  0
 10 58  1  0  0  0  0
  9 59  1  0  0  0  0
  9 60  1  0  0  0  0
  1 61  1  0  0  0  0
  1 62  1  0  0  0  0
  1 63  1  0  0  0  0
M  END
> <Potency>
29.218966003156

> <pIC50>
4.534335156884581

> <Outcome>
Inactive

> <is_active>
0

$$$$

  Mrv1921 08232120312D          

 69 72  0  0  0  0            999 V2000
   -3.5724    0.4125    0.0000 C   0  0  0  0  0  0  0  0  0  0  0  0
   -2.8579   -0.0000    0.0000 C   0  0  0  0  0  0  0  0  0  0  0  0
   -3.2704   -0.7145    0.0000 C   0  0  0  0  0  0  0  0  0  0  0  0
   -3.9249   -1.2167    0.0000 H   0  0  0  0  0  0  0  0  0  0  0  0
   -3.0569   -1.5114    0.0000 H   0  0  0  0  0  0  0  0  0  0  0  0
   -2.4524   -0.8222    0.0000 H   0  0  0  0  0  0  0  0  0  0  0  0
   -2.4454    0.7145    0.0000 C   0  0  0  0  0  0  0  0  0  0  0  0
   -1.9432    0.0600    0.0000 H   0  0  0  0  0  0  0  0  0  0  0  0
   -1.6485    0.9280    0.0000 H   0  0  0  0  0  0  0  0  0  0  0  0
   -2.3377    1.5324    0.0000 H   0  0  0  0  0  0  0  0  0  0  0  0
   -2.1434   -0.4125    0.0000 C   0  0  0  0  0  0  0  0  0  0  0  0
   -1.4289   -0.0000    0.0000 C   0  0  0  0  0  0  0  0  0  0  0  0
   -0.7671    0.4925    0.0000 H   0  0  0  0  0  0  0  0  0  0  0  0
   -0.7145   -0.4125    0.0000 C   0  0  0  0  0  0  0  0  0  0  0  0
    0.0000   -0.8250    0.0000 H   0  0  0  0  0  0  0  0  0  0  0  0
   -0.7145   -1.2375    0.0000 C   0  0  0  0  0  0  0  0  0  0  0  0
    0.0000   -1.6500    0.0000 N   0  0  0  0  0  0  0  0  0  0  0  0
    0.0000   -2.4750    0.0000 C   0  0  0  0  0  0  0  0  0  0  0  0
    0.7145   -2.8875    0.0000 O   0  0  0  0  0  0  0  0  0  0  0  0
   -0.7145   -2.8875    0.0000 C   0  0  0  0  0  0  0  0  0  0  0  0
   -0.8007   -3.7080    0.0000 C   0  0  0  0  0  0  0  0  0  0  0  0
   -0.1876   -4.2600    0.0000 H   0  0  0  0  0  0  0  0  0  0  0  0
   -1.6077   -3.8795    0.0000 O   0  0  0  0  0  0  0  0  0  0  0  0
   -2.0202   -3.1650    0.0000 C   0  0  0  0  0  0  0  0  0  0  0  0
   -2.8407   -3.0788    0.0000 H   0  0  0  0  0  0  0  0  0  0  0  0
   -1.4681   -2.5519    0.0000 N   0  0  0  0  0  0  0  0  0  0  0  0
    0.7145   -1.2375    0.0000 C   0  0  0  0  0  0  0  0  0  0  0  0
    1.4289   -1.6500    0.0000 C   0  0  0  0  0  0  0  0  0  0  0  0
    1.4289   -2.4750    0.0000 O   0  0  0  0  0  0  0  0  0  0  0  0
    2.1434   -1.2375    0.0000 N   0  0  0  0  0  0  0  0  0  0  0  0
    2.8579   -1.6500    0.0000 C   0  0  0  0  0  0  0  0  0  0  0  0
    3.5724   -1.2375    0.0000 C   0  0  0  0  0  0  0  0  0  0  0  0
    3.5724   -0.4125    0.0000 O   0  0  0  0  0  0  0  0  0  0  0  0
    4.2868   -1.6500    0.0000 N   0  0  0  0  0  0  0  0  0  0  0  0
    5.0013   -1.2375    0.0000 C   0  0  0  0  0  0  0  0  0  0  0  0
    5.0013   -0.4125    0.0000 C   0  0  0  0  0  0  0  0  0  0  0  0
    4.2868    0.0000    0.0000 H   0  0  0  0  0  0  0  0  0  0  0  0
    5.7158    0.0000    0.0000 C   0  0  0  0  0  0  0  0  0  0  0  0
    5.7158    0.8250    0.0000 H   0  0  0  0  0  0  0  0  0  0  0  0
    6.4302   -0.4125    0.0000 C   0  0  0  0  0  0  0  0  0  0  0  0
    7.1447    0.0000    0.0000 H   0  0  0  0  0  0  0  0  0  0  0  0
    6.4302   -1.2375    0.0000 C   0  0  0  0  0  0  0  0  0  0  0  0
    7.1447   -1.6500    0.0000 N   0  3  0  0  0  0  0  0  0  0  0  0
    7.8592   -1.2375    0.0000 O   0  0  0  0  0  0  0  0  0  0  0  0
    7.1447   -2.4750    0.0000 O   0  5  0  0  0  0  0  0  0  0  0  0
    5.7158   -1.6500    0.0000 C   0  0  0  0  0  0  0  0  0  0  0  0
    5.7158   -2.4750    0.0000 H   0  0  0  0  0  0  0  0  0  0  0  0
    4.2868   -2.4750    0.0000 H   0  0  0  0  0  0  0  0  0  0  0  0
    2.4876   -2.3872    0.0000 H   0  0  0  0  0  0  0  0  0  0  0  0
    3.2281   -2.3872    0.0000 H   0  0  0  0  0  0  0  0  0  0  0  0
    2.1434   -0.4125    0.0000 H   0  0  0  0  0  0  0  0  0  0  0  0
    0.7145   -0.4125    0.0000 C   0  0  0  0  0  0  0  0  0  0  0  0
    0.0000    0.0000    0.0000 C   0  0  0  0  0  0  0  0  0  0  0  0
    0.7145    0.4125    0.0000 H   0  0  0  0  0  0  0  0  0  0  0  0
    0.0000    0.8250    0.0000 C   0  0  0  0  0  0  0  0  0  0  0  0
   -0.3709    1.5619    0.0000 H   0  0  0  0  0  0  0  0  0  0  0  0
    0.7145    1.2375    0.0000 C   0  0  0  0  0  0  0  0  0  0  0  0
    0.7145    2.0625    0.0000 H   0  0  0  0  0  0  0  0  0  0  0  0
    1.4289    0.8250    0.0000 N   0  0  0  0  0  0  0  0  0  0  0  0
    1.4289    0.0000    0.0000 C   0  0  0  0  0  0  0  0  0  0  0  0
    1.4289   -0.8250    0.0000 H   0  0  0  0  0  0  0  0  0  0  0  0
    0.7145   -2.0625    0.0000 H   0  0  0  0  0  0  0  0  0  0  0  0
   -1.4289   -1.6500    0.0000 C   0  0  0  0  0  0  0  0  0  0  0  0
   -2.1522   -2.0469    0.0000 H   0  0  0  0  0  0  0  0  0  0  0  0
   -2.1434   -1.2375    0.0000 C   0  0  0  0  0  0  0  0  0  0  0  0
   -1.4289   -0.8250    0.0000 H   0  0  0  0  0  0  0  0  0  0  0  0
   -3.1599    1.1270    0.0000 H   0  0  0  0  0  0  0  0  0  0  0  0
   -4.2868    0.8250    0.0000 H   0  0  0  0  0  0  0  0  0  0  0  0
   -3.9849   -0.3020    0.0000 H   0  0  0  0  0  0  0  0  0  0  0  0
  1  2  1  0  0  0  0
  2  3  1  0  0  0  0
  3  4  1  0  0  0  0
  3  5  1  0  0  0  0
  3  6  1  0  0  0  0
  2  7  1  0  0  0  0
  7  8  1  0  0  0  0
  7  9  1  0  0  0  0
  7 10  1  0  0  0  0
  2 11  1  0  0  0  0
 11 12  2  0  0  0  0
 12 13  1  0  0  0  0
 12 14  1  0  0  0  0
 14 15  1  0  0  0  0
 14 16  2  0  0  0  0
 16 17  1  0  0  0  0
 17 18  1  0  0  0  0
 18 19  2  0  0  0  0
 18 20  1  0  0  0  0
 20 21  2  0  0  0  0
 21 22  1  0  0  0  0
 21 23  1  0  0  0  0
 23 24  1  0  0  0  0
 24 25  1  0  0  0  0
 24 26  2  0  0  0  0
 20 26  1  0  0  0  0
 17 27  1  0  0  0  0
 27 28  1  0  0  0  0
 28 29  2  0  0  0  0
 28 30  1  0  0  0  0
 30 31  1  0  0  0  0
 31 32  1  0  0  0  0
 32 33  2  0  0  0  0
 32 34  1  0  0  0  0
 34 35  1  0  0  0  0
 35 36  2  0  0  0  0
 36 37  1  0  0  0  0
 36 38  1  0  0  0  0
 38 39  1  0  0  0  0
 38 40  2  0  0  0  0
 40 41  1  0  0  0  0
 40 42  1  0  0  0  0
 42 43  1  0  0  0  0
 43 44  2  0  0  0  0
 43 45  1  0  0  0  0
 42 46  2  0  0  0  0
 35 46  1  0  0  0  0
 46 47  1  0  0  0  0
 34 48  1  0  0  0  0
 31 49  1  0  0  0  0
 31 50  1  0  0  0  0
 30 51  1  0  0  0  0
 27 52  1  0  0  0  0
 52 53  2  0  0  0  0
 53 54  1  0  0  0  0
 53 55  1  0  0  0  0
 55 56  1  0  0  0  0
 55 57  2  0  0  0  0
 57 58  1  0  0  0  0
 57 59  1  0  0  0  0
 59 60  2  0  0  0  0
 52 60  1  0  0  0  0
 60 61  1  0  0  0  0
 27 62  1  0  0  0  0
 16 63  1  0  0  0  0
 63 64  1  0  0  0  0
 63 65  2  0  0  0  0
 11 65  1  0  0  0  0
 65 66  1  0  0  0  0
  1 67  1  0  0  0  0
  1 68  1  0  0  0  0
  1 69  1  0  0  0  0
M  CHG  2  43   1  45  -1
M  END
> <Potency>
14.3758225491766

> <pIC50>
4.842367296666267

> <Outcome>
Inactive

> <is_active>
0

$$$$

  Mrv1921 08232120312D          

 59 61  0  0  0  0            999 V2000
    1.5077   -3.6573    0.0000 C   0  0  0  0  0  0  0  0  0  0  0  0
    2.3178   -3.5014    0.0000 O   0  0  0  0  0  0  0  0  0  0  0  0
    2.8579   -4.1250    0.0000 C   0  0  0  0  0  0  0  0  0  0  0  0
    2.5878   -4.9046    0.0000 O   0  0  0  0  0  0  0  0  0  0  0  0
    3.6680   -3.9691    0.0000 C   0  0  0  0  0  0  0  0  0  0  0  0
    4.2081   -4.5927    0.0000 N   0  0  0  0  0  0  0  0  0  0  0  0
    5.0182   -4.4368    0.0000 C   0  0  0  0  0  0  0  0  0  0  0  0
    5.2883   -3.6573    0.0000 O   0  0  0  0  0  0  0  0  0  0  0  0
    5.5583   -5.0605    0.0000 C   0  0  0  0  0  0  0  0  0  0  0  0
    5.2883   -5.8400    0.0000 C   0  0  0  0  0  0  0  0  0  0  0  0
    5.8284   -6.4637    0.0000 C   0  0  0  0  0  0  0  0  0  0  0  0
    6.0984   -5.6841    0.0000 H   0  0  0  0  0  0  0  0  0  0  0  0
    5.5583   -7.2432    0.0000 C   0  0  0  0  0  0  0  0  0  0  0  0
    6.0984   -7.8668    0.0000 H   0  0  0  0  0  0  0  0  0  0  0  0
    4.7482   -7.3991    0.0000 C   0  0  0  0  0  0  0  0  0  0  0  0
    4.4782   -8.1787    0.0000 H   0  0  0  0  0  0  0  0  0  0  0  0
    4.2081   -6.7755    0.0000 N   0  0  0  0  0  0  0  0  0  0  0  0
    4.4782   -5.9959    0.0000 C   0  0  0  0  0  0  0  0  0  0  0  0
    3.6680   -6.1518    0.0000 H   0  0  0  0  0  0  0  0  0  0  0  0
    6.3685   -4.9046    0.0000 N   0  0  0  0  0  0  0  0  0  0  0  0
    6.6385   -4.1250    0.0000 C   0  0  0  0  0  0  0  0  0  0  0  0
    6.0984   -3.5014    0.0000 O   0  0  0  0  0  0  0  0  0  0  0  0
    7.4486   -3.9691    0.0000 C   0  0  0  0  0  0  0  0  0  0  0  0
    7.7987   -3.2220    0.0000 C   0  0  0  0  0  0  0  0  0  0  0  0
    7.4001   -2.4997    0.0000 H   0  0  0  0  0  0  0  0  0  0  0  0
    8.6174   -3.3241    0.0000 O   0  0  0  0  0  0  0  0  0  0  0  0
    8.7733   -4.1342    0.0000 C   0  0  0  0  0  0  0  0  0  0  0  0
    9.5203   -4.4843    0.0000 H   0  0  0  0  0  0  0  0  0  0  0  0
    8.0510   -4.5329    0.0000 N   0  0  0  0  0  0  0  0  0  0  0  0
    6.9086   -5.5282    0.0000 C   0  0  0  0  0  0  0  0  0  0  0  0
    7.7187   -5.3723    0.0000 C   0  0  0  0  0  0  0  0  0  0  0  0
    7.1923   -4.7371    0.0000 H   0  0  0  0  0  0  0  0  0  0  0  0
    8.2588   -5.9959    0.0000 C   0  0  0  0  0  0  0  0  0  0  0  0
    9.0689   -5.8400    0.0000 H   0  0  0  0  0  0  0  0  0  0  0  0
    7.9887   -6.7755    0.0000 C   0  0  0  0  0  0  0  0  0  0  0  0
    8.5288   -7.3991    0.0000 C   0  0  0  0  0  0  0  0  0  0  0  0
    9.0689   -8.0228    0.0000 C   0  0  0  0  0  0  0  0  0  0  0  0
    8.4453   -8.5628    0.0000 H   0  0  0  0  0  0  0  0  0  0  0  0
    9.6090   -8.6464    0.0000 H   0  0  0  0  0  0  0  0  0  0  0  0
    9.6926   -7.4827    0.0000 H   0  0  0  0  0  0  0  0  0  0  0  0
    7.9052   -7.9392    0.0000 C   0  0  0  0  0  0  0  0  0  0  0  0
    7.6449   -7.1564    0.0000 H   0  0  0  0  0  0  0  0  0  0  0  0
    7.0823   -7.8801    0.0000 H   0  0  0  0  0  0  0  0  0  0  0  0
    7.5357   -8.6768    0.0000 H   0  0  0  0  0  0  0  0  0  0  0  0
    9.1525   -6.8590    0.0000 C   0  0  0  0  0  0  0  0  0  0  0  0
    9.9353   -6.5987    0.0000 H   0  0  0  0  0  0  0  0  0  0  0  0
    9.2115   -6.0361    0.0000 H   0  0  0  0  0  0  0  0  0  0  0  0
    8.4148   -6.4895    0.0000 H   0  0  0  0  0  0  0  0  0  0  0  0
    7.1786   -6.9314    0.0000 C   0  0  0  0  0  0  0  0  0  0  0  0
    6.3920   -7.1801    0.0000 H   0  0  0  0  0  0  0  0  0  0  0  0
    6.6385   -6.3077    0.0000 C   0  0  0  0  0  0  0  0  0  0  0  0
    7.4486   -6.1518    0.0000 H   0  0  0  0  0  0  0  0  0  0  0  0
    4.7482   -5.2164    0.0000 H   0  0  0  0  0  0  0  0  0  0  0  0
    3.9381   -5.3723    0.0000 H   0  0  0  0  0  0  0  0  0  0  0  0
    4.2592   -3.3937    0.0000 H   0  0  0  0  0  0  0  0  0  0  0  0
    3.5595   -3.1513    0.0000 H   0  0  0  0  0  0  0  0  0  0  0  0
    1.3518   -2.8471    0.0000 H   0  0  0  0  0  0  0  0  0  0  0  0
    0.6975   -3.8132    0.0000 H   0  0  0  0  0  0  0  0  0  0  0  0
    1.6636   -4.4674    0.0000 H   0  0  0  0  0  0  0  0  0  0  0  0
  1  2  1  0  0  0  0
  2  3  1  0  0  0  0
  3  4  2  0  0  0  0
  3  5  1  0  0  0  0
  5  6  1  0  0  0  0
  6  7  1  0  0  0  0
  7  8  2  0  0  0  0
  7  9  1  0  0  0  0
  9 10  1  0  0  0  0
 10 11  2  0  0  0  0
 11 12  1  0  0  0  0
 11 13  1  0  0  0  0
 13 14  1  0  0  0  0
 13 15  2  0  0  0  0
 15 16  1  0  0  0  0
 15 17  1  0  0  0  0
 17 18  2  0  0  0  0
 10 18  1  0  0  0  0
 18 19  1  0  0  0  0
  9 20  1  0  0  0  0
 20 21  1  0  0  0  0
 21 22  2  0  0  0  0
 21 23  1  0  0  0  0
 23 24  2  0  0  0  0
 24 25  1  0  0  0  0
 24 26  1  0  0  0  0
 26 27  1  0  0  0  0
 27 28  1  0  0  0  0
 27 29  2  0  0  0  0
 23 29  1  0  0  0  0
 20 30  1  0  0  0  0
 30 31  2  0  0  0  0
 31 32  1  0  0  0  0
 31 33  1  0  0  0  0
 33 34  1  0  0  0  0
 33 35  2  0  0  0  0
 35 36  1  0  0  0  0
 36 37  1  0  0  0  0
 37 38  1  0  0  0  0
 37 39  1  0  0  0  0
 37 40  1  0  0  0  0
 36 41  1  0  0  0  0
 41 42  1  0  0  0  0
 41 43  1  0  0  0  0
 41 44  1  0  0  0  0
 36 45  1  0  0  0  0
 45 46  1  0  0  0  0
 45 47  1  0  0  0  0
 45 48  1  0  0  0  0
 35 49  1  0  0  0  0
 49 50  1  0  0  0  0
 49 51  2  0  0  0  0
 30 51  1  0  0  0  0
 51 52  1  0  0  0  0
  9 53  1  0  0  0  0
  6 54  1  0  0  0  0
  5 55  1  0  0  0  0
  5 56  1  0  0  0  0
  1 57  1  0  0  0  0
  1 58  1  0  0  0  0
  1 59  1  0  0  0  0
M  END
> <Potency>
10.755315549433

> <pIC50>
4.968376843354884

> <Outcome>
Inactive

> <is_active>
0

$$$$

  Mrv1921 08232120312D          

 69 72  0  0  0  0            999 V2000
   -0.6078    7.6527    0.0000 C   0  0  0  0  0  0  0  0  0  0  0  0
   -0.6078    6.8277    0.0000 C   0  0  0  0  0  0  0  0  0  0  0  0
    0.1067    6.4152    0.0000 C   0  0  0  0  0  0  0  0  0  0  0  0
    0.8212    6.8277    0.0000 H   0  0  0  0  0  0  0  0  0  0  0  0
    0.1067    5.5902    0.0000 C   0  0  0  0  0  0  0  0  0  0  0  0
    0.8212    5.1777    0.0000 H   0  0  0  0  0  0  0  0  0  0  0  0
   -0.6078    5.1777    0.0000 C   0  0  0  0  0  0  0  0  0  0  0  0
   -0.6078    4.3527    0.0000 S   0  0  0  0  0  0  0  0  0  0  0  0
   -1.4328    4.3527    0.0000 O   0  0  0  0  0  0  0  0  0  0  0  0
    0.2172    4.3527    0.0000 O   0  0  0  0  0  0  0  0  0  0  0  0
   -0.6078    3.5277    0.0000 C   0  0  0  0  0  0  0  0  0  0  0  0
   -1.3222    3.1152    0.0000 N   0  0  0  0  0  0  0  0  0  0  0  0
   -1.3222    2.2902    0.0000 C   0  0  0  0  0  0  0  0  0  0  0  0
   -0.6078    1.8777    0.0000 O   0  0  0  0  0  0  0  0  0  0  0  0
   -2.0367    1.8777    0.0000 C   0  0  0  0  0  0  0  0  0  0  0  0
   -2.7512    2.2902    0.0000 C   0  0  0  0  0  0  0  0  0  0  0  0
   -3.4656    1.8777    0.0000 C   0  0  0  0  0  0  0  0  0  0  0  0
   -2.7512    1.4652    0.0000 H   0  0  0  0  0  0  0  0  0  0  0  0
   -4.1801    2.2902    0.0000 C   0  0  0  0  0  0  0  0  0  0  0  0
   -4.8946    1.8777    0.0000 H   0  0  0  0  0  0  0  0  0  0  0  0
   -4.1801    3.1152    0.0000 C   0  0  0  0  0  0  0  0  0  0  0  0
   -4.8946    3.5277    0.0000 H   0  0  0  0  0  0  0  0  0  0  0  0
   -3.4656    3.5277    0.0000 N   0  0  0  0  0  0  0  0  0  0  0  0
   -2.7512    3.1152    0.0000 C   0  0  0  0  0  0  0  0  0  0  0  0
   -2.7512    3.9402    0.0000 H   0  0  0  0  0  0  0  0  0  0  0  0
   -2.0367    1.0527    0.0000 N   0  0  0  0  0  0  0  0  0  0  0  0
   -1.3222    0.6402    0.0000 C   0  0  0  0  0  0  0  0  0  0  0  0
   -0.6078    1.0527    0.0000 O   0  0  0  0  0  0  0  0  0  0  0  0
   -1.3222   -0.1848    0.0000 C   0  0  0  0  0  0  0  0  0  0  0  0
   -0.6548   -0.6697    0.0000 C   0  0  0  0  0  0  0  0  0  0  0  0
    0.1298   -0.4148    0.0000 H   0  0  0  0  0  0  0  0  0  0  0  0
   -0.9097   -1.4544    0.0000 O   0  0  0  0  0  0  0  0  0  0  0  0
   -1.7347   -1.4544    0.0000 C   0  0  0  0  0  0  0  0  0  0  0  0
   -2.2197   -2.1218    0.0000 H   0  0  0  0  0  0  0  0  0  0  0  0
   -1.9897   -0.6697    0.0000 N   0  0  0  0  0  0  0  0  0  0  0  0
   -2.7512    0.6402    0.0000 C   0  0  0  0  0  0  0  0  0  0  0  0
   -2.7512   -0.1848    0.0000 C   0  0  0  0  0  0  0  0  0  0  0  0
   -2.0279    0.2121    0.0000 H   0  0  0  0  0  0  0  0  0  0  0  0
   -3.4656   -0.5973    0.0000 C   0  0  0  0  0  0  0  0  0  0  0  0
   -3.4656   -1.4223    0.0000 H   0  0  0  0  0  0  0  0  0  0  0  0
   -4.1801   -0.1848    0.0000 C   0  0  0  0  0  0  0  0  0  0  0  0
   -4.8946   -0.5973    0.0000 C   0  0  0  0  0  0  0  0  0  0  0  0
   -5.6091   -1.0098    0.0000 C   0  0  0  0  0  0  0  0  0  0  0  0
   -6.0216   -0.2953    0.0000 H   0  0  0  0  0  0  0  0  0  0  0  0
   -6.3235   -1.4223    0.0000 H   0  0  0  0  0  0  0  0  0  0  0  0
   -5.1966   -1.7243    0.0000 H   0  0  0  0  0  0  0  0  0  0  0  0
   -5.3071    0.1172    0.0000 C   0  0  0  0  0  0  0  0  0  0  0  0
   -4.4891    0.2248    0.0000 H   0  0  0  0  0  0  0  0  0  0  0  0
   -5.0936    0.9140    0.0000 H   0  0  0  0  0  0  0  0  0  0  0  0
   -5.9616    0.6194    0.0000 H   0  0  0  0  0  0  0  0  0  0  0  0
   -4.4821   -1.3118    0.0000 C   0  0  0  0  0  0  0  0  0  0  0  0
   -4.3744   -2.1297    0.0000 H   0  0  0  0  0  0  0  0  0  0  0  0
   -3.6852   -1.5253    0.0000 H   0  0  0  0  0  0  0  0  0  0  0  0
   -3.9799   -0.6573    0.0000 H   0  0  0  0  0  0  0  0  0  0  0  0
   -4.1801    0.6402    0.0000 C   0  0  0  0  0  0  0  0  0  0  0  0
   -4.2757    1.4596    0.0000 H   0  0  0  0  0  0  0  0  0  0  0  0
   -3.4656    1.0527    0.0000 C   0  0  0  0  0  0  0  0  0  0  0  0
   -3.4656    0.2277    0.0000 H   0  0  0  0  0  0  0  0  0  0  0  0
   -2.0367    2.7027    0.0000 H   0  0  0  0  0  0  0  0  0  0  0  0
   -2.0367    3.5277    0.0000 H   0  0  0  0  0  0  0  0  0  0  0  0
   -0.1544    2.8384    0.0000 H   0  0  0  0  0  0  0  0  0  0  0  0
    0.2158    3.4797    0.0000 H   0  0  0  0  0  0  0  0  0  0  0  0
   -1.3222    5.5902    0.0000 C   0  0  0  0  0  0  0  0  0  0  0  0
   -2.0367    5.1777    0.0000 H   0  0  0  0  0  0  0  0  0  0  0  0
   -1.3222    6.4152    0.0000 C   0  0  0  0  0  0  0  0  0  0  0  0
   -2.0367    6.8277    0.0000 H   0  0  0  0  0  0  0  0  0  0  0  0
    0.2172    7.6527    0.0000 H   0  0  0  0  0  0  0  0  0  0  0  0
   -0.6078    8.4777    0.0000 H   0  0  0  0  0  0  0  0  0  0  0  0
   -1.4328    7.6527    0.0000 H   0  0  0  0  0  0  0  0  0  0  0  0
  1  2  1  0  0  0  0
  2  3  2  0  0  0  0
  3  4  1  0  0  0  0
  3  5  1  0  0  0  0
  5  6  1  0  0  0  0
  5  7  2  0  0  0  0
  7  8  1  0  0  0  0
  8  9  2  0  0  0  0
  8 10  2  0  0  0  0
  8 11  1  0  0  0  0
 11 12  1  0  0  0  0
 12 13  1  0  0  0  0
 13 14  2  0  0  0  0
 13 15  1  0  0  0  0
 15 16  1  0  0  0  0
 16 17  2  0  0  0  0
 17 18  1  0  0  0  0
 17 19  1  0  0  0  0
 19 20  1  0  0  0  0
 19 21  2  0  0  0  0
 21 22  1  0  0  0  0
 21 23  1  0  0  0  0
 23 24  2  0  0  0  0
 16 24  1  0  0  0  0
 24 25  1  0  0  0  0
 15 26  1  0  0  0  0
 26 27  1  0  0  0  0
 27 28  2  0  0  0  0
 27 29  1  0  0  0  0
 29 30  2  0  0  0  0
 30 31  1  0  0  0  0
 30 32  1  0  0  0  0
 32 33  1  0  0  0  0
 33 34  1  0  0  0  0
 33 35  2  0  0  0  0
 29 35  1  0  0  0  0
 26 36  1  0  0  0  0
 36 37  2  0  0  0  0
 37 38  1  0  0  0  0
 37 39  1  0  0  0  0
 39 40  1  0  0  0  0
 39 41  2  0  0  0  0
 41 42  1  0  0  0  0
 42 43  1  0  0  0  0
 43 44  1  0  0  0  0
 43 45  1  0  0  0  0
 43 46  1  0  0  0  0
 42 47  1  0  0  0  0
 47 48  1  0  0  0  0
 47 49  1  0  0  0  0
 47 50  1  0  0  0  0
 42 51  1  0  0  0  0
 51 52  1  0  0  0  0
 51 53  1  0  0  0  0
 51 54  1  0  0  0  0
 41 55  1  0  0  0  0
 55 56  1  0  0  0  0
 55 57  2  0  0  0  0
 36 57  1  0  0  0  0
 57 58  1  0  0  0  0
 15 59  1  0  0  0  0
 12 60  1  0  0  0  0
 11 61  1  0  0  0  0
 11 62  1  0  0  0  0
  7 63  1  0  0  0  0
 63 64  1  0  0  0  0
 63 65  2  0  0  0  0
  2 65  1  0  0  0  0
 65 66  1  0  0  0  0
  1 67  1  0  0  0  0
  1 68  1  0  0  0  0
  1 69  1  0  0  0  0
M  END
> <Potency>
62.8701692340309

> <pIC50>
4.201555370613597

> <Outcome>
Inactive

> <is_active>
0

$$$$

  Mrv1921 08232120312D          

 69 72  0  0  0  0            999 V2000
   -2.4304    1.4228    0.0000 C   0  0  0  0  0  0  0  0  0  0  0  0
   -1.8903    0.7991    0.0000 C   0  0  0  0  0  0  0  0  0  0  0  0
   -2.5140    0.2590    0.0000 C   0  0  0  0  0  0  0  0  0  0  0  0
   -3.2968   -0.0013    0.0000 H   0  0  0  0  0  0  0  0  0  0  0  0
   -2.5730   -0.5639    0.0000 H   0  0  0  0  0  0  0  0  0  0  0  0
   -1.7763   -0.1105    0.0000 H   0  0  0  0  0  0  0  0  0  0  0  0
   -1.2667    1.3392    0.0000 C   0  0  0  0  0  0  0  0  0  0  0  0
   -1.0064    0.5564    0.0000 H   0  0  0  0  0  0  0  0  0  0  0  0
   -0.4438    1.2801    0.0000 H   0  0  0  0  0  0  0  0  0  0  0  0
   -0.8972    2.0768    0.0000 H   0  0  0  0  0  0  0  0  0  0  0  0
   -1.3502    0.1755    0.0000 C   0  0  0  0  0  0  0  0  0  0  0  0
   -0.5401    0.3314    0.0000 C   0  0  0  0  0  0  0  0  0  0  0  0
    0.2465    0.5801    0.0000 H   0  0  0  0  0  0  0  0  0  0  0  0
    0.0000   -0.2923    0.0000 C   0  0  0  0  0  0  0  0  0  0  0  0
    0.5401   -0.9159    0.0000 H   0  0  0  0  0  0  0  0  0  0  0  0
   -0.2700   -1.0718    0.0000 C   0  0  0  0  0  0  0  0  0  0  0  0
    0.2700   -1.6954    0.0000 N   0  0  0  0  0  0  0  0  0  0  0  0
    0.0000   -2.4750    0.0000 C   0  0  0  0  0  0  0  0  0  0  0  0
    0.5401   -3.0986    0.0000 O   0  0  0  0  0  0  0  0  0  0  0  0
   -0.8101   -2.6309    0.0000 C   0  0  0  0  0  0  0  0  0  0  0  0
   -1.1602   -3.3780    0.0000 C   0  0  0  0  0  0  0  0  0  0  0  0
   -0.7616   -4.1003    0.0000 H   0  0  0  0  0  0  0  0  0  0  0  0
   -1.9788   -3.2759    0.0000 O   0  0  0  0  0  0  0  0  0  0  0  0
   -2.1348   -2.4658    0.0000 C   0  0  0  0  0  0  0  0  0  0  0  0
   -2.8818   -2.1157    0.0000 H   0  0  0  0  0  0  0  0  0  0  0  0
   -1.4125   -2.0671    0.0000 N   0  0  0  0  0  0  0  0  0  0  0  0
    1.0802   -1.5395    0.0000 C   0  0  0  0  0  0  0  0  0  0  0  0
    1.6203   -2.1632    0.0000 C   0  0  0  0  0  0  0  0  0  0  0  0
    1.3502   -2.9427    0.0000 O   0  0  0  0  0  0  0  0  0  0  0  0
    2.4304   -2.0073    0.0000 N   0  0  0  0  0  0  0  0  0  0  0  0
    2.9705   -2.6309    0.0000 C   0  0  0  0  0  0  0  0  0  0  0  0
    3.7806   -2.4750    0.0000 C   0  0  0  0  0  0  0  0  0  0  0  0
    4.3207   -3.0986    0.0000 N   0  0  0  0  0  0  0  0  0  0  0  0
    5.1308   -2.9427    0.0000 C   0  0  0  0  0  0  0  0  0  0  0  0
    5.7220   -2.3673    0.0000 H   0  0  0  0  0  0  0  0  0  0  0  0
    5.0223   -2.1249    0.0000 H   0  0  0  0  0  0  0  0  0  0  0  0
    5.6709   -3.5664    0.0000 C   0  0  0  0  0  0  0  0  0  0  0  0
    6.4649   -3.7906    0.0000 H   0  0  0  0  0  0  0  0  0  0  0  0
    6.3249   -3.0635    0.0000 H   0  0  0  0  0  0  0  0  0  0  0  0
    5.4009   -4.3459    0.0000 O   0  0  0  0  0  0  0  0  0  0  0  0
    4.5908   -4.5018    0.0000 C   0  0  0  0  0  0  0  0  0  0  0  0
    3.9996   -5.0773    0.0000 H   0  0  0  0  0  0  0  0  0  0  0  0
    4.6993   -5.3197    0.0000 H   0  0  0  0  0  0  0  0  0  0  0  0
    4.0507   -3.8782    0.0000 C   0  0  0  0  0  0  0  0  0  0  0  0
    3.2567   -3.6539    0.0000 H   0  0  0  0  0  0  0  0  0  0  0  0
    3.3967   -4.3811    0.0000 H   0  0  0  0  0  0  0  0  0  0  0  0
    4.3718   -1.8996    0.0000 H   0  0  0  0  0  0  0  0  0  0  0  0
    3.6721   -1.6572    0.0000 H   0  0  0  0  0  0  0  0  0  0  0  0
    2.3793   -3.2063    0.0000 H   0  0  0  0  0  0  0  0  0  0  0  0
    3.0790   -3.4487    0.0000 H   0  0  0  0  0  0  0  0  0  0  0  0
    2.7004   -1.2277    0.0000 H   0  0  0  0  0  0  0  0  0  0  0  0
    1.3502   -0.7600    0.0000 C   0  0  0  0  0  0  0  0  0  0  0  0
    0.8101   -0.1363    0.0000 C   0  0  0  0  0  0  0  0  0  0  0  0
    1.6203    0.0196    0.0000 H   0  0  0  0  0  0  0  0  0  0  0  0
    1.0802    0.6432    0.0000 C   0  0  0  0  0  0  0  0  0  0  0  0
    0.9709    1.4609    0.0000 H   0  0  0  0  0  0  0  0  0  0  0  0
    1.8903    0.7991    0.0000 C   0  0  0  0  0  0  0  0  0  0  0  0
    2.1604    1.5787    0.0000 H   0  0  0  0  0  0  0  0  0  0  0  0
    2.4304    0.1755    0.0000 N   0  0  0  0  0  0  0  0  0  0  0  0
    2.1604   -0.6041    0.0000 C   0  0  0  0  0  0  0  0  0  0  0  0
    1.8903   -1.3836    0.0000 H   0  0  0  0  0  0  0  0  0  0  0  0
    0.8101   -2.3191    0.0000 H   0  0  0  0  0  0  0  0  0  0  0  0
   -1.0802   -1.2277    0.0000 C   0  0  0  0  0  0  0  0  0  0  0  0
   -1.8935   -1.3660    0.0000 H   0  0  0  0  0  0  0  0  0  0  0  0
   -1.6203   -0.6041    0.0000 C   0  0  0  0  0  0  0  0  0  0  0  0
   -0.8101   -0.4482    0.0000 H   0  0  0  0  0  0  0  0  0  0  0  0
   -1.8068    1.9628    0.0000 H   0  0  0  0  0  0  0  0  0  0  0  0
   -2.9705    2.0464    0.0000 H   0  0  0  0  0  0  0  0  0  0  0  0
   -3.0540    0.8827    0.0000 H   0  0  0  0  0  0  0  0  0  0  0  0
  1  2  1  0  0  0  0
  2  3  1  0  0  0  0
  3  4  1  0  0  0  0
  3  5  1  0  0  0  0
  3  6  1  0  0  0  0
  2  7  1  0  0  0  0
  7  8  1  0  0  0  0
  7  9  1  0  0  0  0
  7 10  1  0  0  0  0
  2 11  1  0  0  0  0
 11 12  2  0  0  0  0
 12 13  1  0  0  0  0
 12 14  1  0  0  0  0
 14 15  1  0  0  0  0
 14 16  2  0  0  0  0
 16 17  1  0  0  0  0
 17 18  1  0  0  0  0
 18 19  2  0  0  0  0
 18 20  1  0  0  0  0
 20 21  2  0  0  0  0
 21 22  1  0  0  0  0
 21 23  1  0  0  0  0
 23 24  1  0  0  0  0
 24 25  1  0  0  0  0
 24 26  2  0  0  0  0
 20 26  1  0  0  0  0
 17 27  1  0  0  0  0
 27 28  1  0  0  0  0
 28 29  2  0  0  0  0
 28 30  1  0  0  0  0
 30 31  1  0  0  0  0
 31 32  1  0  0  0  0
 32 33  1  0  0  0  0
 33 34  1  0  0  0  0
 34 35  1  0  0  0  0
 34 36  1  0  0  0  0
 34 37  1  0  0  0  0
 37 38  1  0  0  0  0
 37 39  1  0  0  0  0
 37 40  1  0  0  0  0
 40 41  1  0  0  0  0
 41 42  1  0  0  0  0
 41 43  1  0  0  0  0
 41 44  1  0  0  0  0
 33 44  1  0  0  0  0
 44 45  1  0  0  0  0
 44 46  1  0  0  0  0
 32 47  1  0  0  0  0
 32 48  1  0  0  0  0
 31 49  1  0  0  0  0
 31 50  1  0  0  0  0
 30 51  1  0  0  0  0
 27 52  1  0  0  0  0
 52 53  2  0  0  0  0
 53 54  1  0  0  0  0
 53 55  1  0  0  0  0
 55 56  1  0  0  0  0
 55 57  2  0  0  0  0
 57 58  1  0  0  0  0
 57 59  1  0  0  0  0
 59 60  2  0  0  0  0
 52 60  1  0  0  0  0
 60 61  1  0  0  0  0
 27 62  1  0  0  0  0
 16 63  1  0  0  0  0
 63 64  1  0  0  0  0
 63 65  2  0  0  0  0
 11 65  1  0  0  0  0
 65 66  1  0  0  0  0
  1 67  1  0  0  0  0
  1 68  1  0  0  0  0
  1 69  1  0  0  0  0
M  END
> <Potency>
82.5461556128514

> <pIC50>
4.083303148143199

> <Outcome>
Inactive

> <is_active>
0

$$$$

  Mrv1921 08232120312D          

 57 60  0  0  0  0            999 V2000
    0.8347   -3.9087    0.0000 C   0  0  0  0  0  0  0  0  0  0  0  0
    1.5492   -3.4962    0.0000 O   0  0  0  0  0  0  0  0  0  0  0  0
    2.2636   -3.9087    0.0000 C   0  0  0  0  0  0  0  0  0  0  0  0
    2.9781   -3.4962    0.0000 C   0  0  0  0  0  0  0  0  0  0  0  0
    3.6926   -3.9087    0.0000 C   0  0  0  0  0  0  0  0  0  0  0  0
    4.4070   -3.4962    0.0000 N   0  0  0  0  0  0  0  0  0  0  0  0
    5.1215   -3.9087    0.0000 C   0  0  0  0  0  0  0  0  0  0  0  0
    5.1215   -4.7337    0.0000 C   0  0  0  0  0  0  0  0  0  0  0  0
    5.9340   -4.5904    0.0000 C   0  0  0  0  0  0  0  0  0  0  0  0
    6.4643   -5.2224    0.0000 O   0  0  0  0  0  0  0  0  0  0  0  0
    6.2161   -3.8152    0.0000 N   0  0  0  0  0  0  0  0  0  0  0  0
    5.6858   -3.1832    0.0000 C   0  0  0  0  0  0  0  0  0  0  0  0
    4.8734   -3.3265    0.0000 C   0  0  0  0  0  0  0  0  0  0  0  0
    5.1555   -2.5512    0.0000 H   0  0  0  0  0  0  0  0  0  0  0  0
    4.3431   -2.6945    0.0000 N   0  0  0  0  0  0  0  0  0  0  0  0
    4.6252   -1.9192    0.0000 C   0  0  0  0  0  0  0  0  0  0  0  0
    4.0949   -1.2873    0.0000 H   0  0  0  0  0  0  0  0  0  0  0  0
    5.4377   -1.7760    0.0000 C   0  0  0  0  0  0  0  0  0  0  0  0
    5.7199   -1.0007    0.0000 C   0  0  0  0  0  0  0  0  0  0  0  0
    6.5323   -0.8575    0.0000 C   0  0  0  0  0  0  0  0  0  0  0  0
    7.0626   -1.4895    0.0000 C   0  0  0  0  0  0  0  0  0  0  0  0
    6.7805   -2.2647    0.0000 C   0  0  0  0  0  0  0  0  0  0  0  0
    7.3108   -2.8967    0.0000 H   0  0  0  0  0  0  0  0  0  0  0  0
    5.9680   -2.4080    0.0000 C   0  0  0  0  0  0  0  0  0  0  0  0
    7.8751   -1.3462    0.0000 H   0  0  0  0  0  0  0  0  0  0  0  0
    6.8145   -0.0822    0.0000 H   0  0  0  0  0  0  0  0  0  0  0  0
    5.1896   -0.3687    0.0000 H   0  0  0  0  0  0  0  0  0  0  0  0
    7.0286   -3.6719    0.0000 H   0  0  0  0  0  0  0  0  0  0  0  0
    4.3090   -4.5904    0.0000 C   0  0  0  0  0  0  0  0  0  0  0  0
    4.5912   -5.3657    0.0000 H   0  0  0  0  0  0  0  0  0  0  0  0
    5.0235   -4.1779    0.0000 H   0  0  0  0  0  0  0  0  0  0  0  0
    3.7787   -5.2224    0.0000 C   0  0  0  0  0  0  0  0  0  0  0  0
    2.9574   -5.1444    0.0000 H   0  0  0  0  0  0  0  0  0  0  0  0
    3.2741   -5.8751    0.0000 H   0  0  0  0  0  0  0  0  0  0  0  0
    4.0609   -5.9977    0.0000 O   0  0  0  0  0  0  0  0  0  0  0  0
    4.8734   -6.1409    0.0000 C   0  0  0  0  0  0  0  0  0  0  0  0
    5.1555   -6.9162    0.0000 C   0  0  0  0  0  0  0  0  0  0  0  0
    5.9680   -7.0594    0.0000 C   0  0  0  0  0  0  0  0  0  0  0  0
    6.4983   -6.4275    0.0000 C   0  0  0  0  0  0  0  0  0  0  0  0
    7.3108   -6.5707    0.0000 Cl  0  0  0  0  0  0  0  0  0  0  0  0
    6.2161   -5.6522    0.0000 C   0  0  0  0  0  0  0  0  0  0  0  0
    7.0380   -5.7241    0.0000 H   0  0  0  0  0  0  0  0  0  0  0  0
    5.4037   -5.5090    0.0000 C   0  0  0  0  0  0  0  0  0  0  0  0
    6.2502   -7.8347    0.0000 H   0  0  0  0  0  0  0  0  0  0  0  0
    4.6252   -7.5482    0.0000 H   0  0  0  0  0  0  0  0  0  0  0  0
    5.9018   -4.1765    0.0000 H   0  0  0  0  0  0  0  0  0  0  0  0
    4.4070   -4.3212    0.0000 H   0  0  0  0  0  0  0  0  0  0  0  0
    3.6767   -3.1125    0.0000 H   0  0  0  0  0  0  0  0  0  0  0  0
    2.9391   -4.2448    0.0000 H   0  0  0  0  0  0  0  0  0  0  0  0
    3.5222   -4.7159    0.0000 H   0  0  0  0  0  0  0  0  0  0  0  0
    3.3484   -2.7590    0.0000 H   0  0  0  0  0  0  0  0  0  0  0  0
    2.6078   -2.7590    0.0000 H   0  0  0  0  0  0  0  0  0  0  0  0
    1.8934   -4.6460    0.0000 H   0  0  0  0  0  0  0  0  0  0  0  0
    2.6339   -4.6460    0.0000 H   0  0  0  0  0  0  0  0  0  0  0  0
    0.4222   -3.1942    0.0000 H   0  0  0  0  0  0  0  0  0  0  0  0
    0.1202   -4.3212    0.0000 H   0  0  0  0  0  0  0  0  0  0  0  0
    1.2472   -4.6232    0.0000 H   0  0  0  0  0  0  0  0  0  0  0  0
  1  2  1  0  0  0  0
  2  3  1  0  0  0  0
  3  4  1  0  0  0  0
  4  5  1  0  0  0  0
  5  6  1  0  0  0  0
  6  7  1  0  0  0  0
  7  8  1  0  0  0  0
  8  9  1  0  0  0  0
  9 10  2  0  0  0  0
  9 11  1  0  0  0  0
 11 12  1  0  0  0  0
 12 13  2  0  0  0  0
 13 14  1  0  0  0  0
 13 15  1  0  0  0  0
 15 16  2  0  0  0  0
 16 17  1  0  0  0  0
 16 18  1  0  0  0  0
 18 19  2  0  0  0  0
 19 20  1  0  0  0  0
 20 21  2  0  0  0  0
 21 22  1  0  0  0  0
 22 23  1  0  0  0  0
 22 24  2  0  0  0  0
 12 24  1  0  0  0  0
 18 24  1  0  0  0  0
 21 25  1  0  0  0  0
 20 26  1  0  0  0  0
 19 27  1  0  0  0  0
 11 28  1  0  0  0  0
  8 29  1  0  0  0  0
 29 30  1  0  0  0  0
 29 31  1  0  0  0  0
 29 32  1  0  0  0  0
 32 33  1  0  0  0  0
 32 34  1  0  0  0  0
 32 35  1  0  0  0  0
 35 36  1  0  0  0  0
 36 37  2  0  0  0  0
 37 38  1  0  0  0  0
 38 39  2  0  0  0  0
 39 40  1  0  0  0  0
 39 41  1  0  0  0  0
 41 42  1  0  0  0  0
 41 43  2  0  0  0  0
  8 43  1  0  0  0  0
 36 43  1  0  0  0  0
 38 44  1  0  0  0  0
 37 45  1  0  0  0  0
  7 46  1  0  0  0  0
  7 47  1  0  0  0  0
  6 48  1  0  0  0  0
  5 49  1  0  0  0  0
  5 50  1  0  0  0  0
  4 51  1  0  0  0  0
  4 52  1  0  0  0  0
  3 53  1  0  0  0  0
  3 54  1  0  0  0  0
  1 55  1  0  0  0  0
  1 56  1  0  0  0  0
  1 57  1  0  0  0  0
M  END
> <Potency>
11.383488223709

> <pIC50>
4.9437246373980575

> <Outcome>
Inactive

> <is_active>
0

$$$$

  Mrv1921 08232120312D          

 54 57  0  0  0  0            999 V2000
    3.5724   -2.0625    0.0000 C   0  0  0  0  0  0  0  0  0  0  0  0
    3.5724   -1.2375    0.0000 N   0  0  0  0  0  0  0  0  0  0  0  0
    2.8579   -0.8250    0.0000 C   0  0  0  0  0  0  0  0  0  0  0  0
    2.1434   -1.2375    0.0000 O   0  0  0  0  0  0  0  0  0  0  0  0
    2.8579    0.0000    0.0000 C   0  0  0  0  0  0  0  0  0  0  0  0
    2.1434    0.4125    0.0000 H   0  0  0  0  0  0  0  0  0  0  0  0
    3.5724    0.4125    0.0000 C   0  0  0  0  0  0  0  0  0  0  0  0
    3.5724    1.2375    0.0000 H   0  0  0  0  0  0  0  0  0  0  0  0
    4.2868    0.0000    0.0000 N   0  0  0  0  0  0  0  0  0  0  0  0
    5.0013    0.4125    0.0000 C   0  0  0  0  0  0  0  0  0  0  0  0
    5.7158    0.0000    0.0000 C   0  0  0  0  0  0  0  0  0  0  0  0
    5.7158   -0.8250    0.0000 O   0  0  0  0  0  0  0  0  0  0  0  0
    6.4302    0.4125    0.0000 N   0  0  0  0  0  0  0  0  0  0  0  0
    7.1447    0.0000    0.0000 C   0  0  0  0  0  0  0  0  0  0  0  0
    7.8592    0.4125    0.0000 C   0  0  0  0  0  0  0  0  0  0  0  0
    7.8592    1.2375    0.0000 O   0  0  0  0  0  0  0  0  0  0  0  0
    8.5737    0.0000    0.0000 N   0  0  0  0  0  0  0  0  0  0  0  0
    9.2881    0.4125    0.0000 C   0  0  0  0  0  0  0  0  0  0  0  0
    9.2881    1.2375    0.0000 C   0  0  0  0  0  0  0  0  0  0  0  0
    8.5737    1.6500    0.0000 H   0  0  0  0  0  0  0  0  0  0  0  0
   10.0026    1.6500    0.0000 N   0  0  0  0  0  0  0  0  0  0  0  0
   10.7171    1.2375    0.0000 C   0  0  0  0  0  0  0  0  0  0  0  0
   11.4315    1.6500    0.0000 H   0  0  0  0  0  0  0  0  0  0  0  0
   10.7171    0.4125    0.0000 C   0  0  0  0  0  0  0  0  0  0  0  0
   11.4315    0.0000    0.0000 C   0  0  0  0  0  0  0  0  0  0  0  0
   11.4315   -0.8250    0.0000 C   0  0  0  0  0  0  0  0  0  0  0  0
   10.7171   -1.2375    0.0000 C   0  0  0  0  0  0  0  0  0  0  0  0
   10.0026   -0.8250    0.0000 C   0  0  0  0  0  0  0  0  0  0  0  0
    9.2881   -1.2375    0.0000 H   0  0  0  0  0  0  0  0  0  0  0  0
   10.0026    0.0000    0.0000 C   0  0  0  0  0  0  0  0  0  0  0  0
   10.7171   -2.0625    0.0000 H   0  0  0  0  0  0  0  0  0  0  0  0
   12.1460   -1.2375    0.0000 H   0  0  0  0  0  0  0  0  0  0  0  0
   12.1460    0.4125    0.0000 H   0  0  0  0  0  0  0  0  0  0  0  0
    8.5737   -0.8250    0.0000 H   0  0  0  0  0  0  0  0  0  0  0  0
    7.1447   -0.8250    0.0000 C   0  0  0  0  0  0  0  0  0  0  0  0
    7.8592   -1.2375    0.0000 C   0  0  0  0  0  0  0  0  0  0  0  0
    7.8592   -0.4125    0.0000 H   0  0  0  0  0  0  0  0  0  0  0  0
    7.8592   -2.0625    0.0000 C   0  0  0  0  0  0  0  0  0  0  0  0
    8.5737   -2.4750    0.0000 H   0  0  0  0  0  0  0  0  0  0  0  0
    7.1447   -2.4750    0.0000 C   0  0  0  0  0  0  0  0  0  0  0  0
    7.1447   -3.3000    0.0000 H   0  0  0  0  0  0  0  0  0  0  0  0
    6.4302   -2.0625    0.0000 C   0  0  0  0  0  0  0  0  0  0  0  0
    5.7158   -2.4750    0.0000 Cl  0  0  0  0  0  0  0  0  0  0  0  0
    6.4302   -1.2375    0.0000 C   0  0  0  0  0  0  0  0  0  0  0  0
    6.4302   -0.4125    0.0000 H   0  0  0  0  0  0  0  0  0  0  0  0
    7.1447    0.8250    0.0000 H   0  0  0  0  0  0  0  0  0  0  0  0
    6.4302    1.2375    0.0000 H   0  0  0  0  0  0  0  0  0  0  0  0
    5.3716    1.1497    0.0000 H   0  0  0  0  0  0  0  0  0  0  0  0
    4.6310    1.1497    0.0000 H   0  0  0  0  0  0  0  0  0  0  0  0
    4.2868   -0.8250    0.0000 C   0  0  0  0  0  0  0  0  0  0  0  0
    5.0013   -1.2375    0.0000 O   0  0  0  0  0  0  0  0  0  0  0  0
    2.7474   -2.0625    0.0000 H   0  0  0  0  0  0  0  0  0  0  0  0
    3.5724   -2.8875    0.0000 H   0  0  0  0  0  0  0  0  0  0  0  0
    4.3974   -2.0625    0.0000 H   0  0  0  0  0  0  0  0  0  0  0  0
  1  2  1  0  0  0  0
  2  3  4  0  0  0  0
  3  4  2  0  0  0  0
  3  5  4  0  0  0  0
  5  6  1  0  0  0  0
  5  7  4  0  0  0  0
  7  8  1  0  0  0  0
  7  9  4  0  0  0  0
  9 10  1  0  0  0  0
 10 11  1  0  0  0  0
 11 12  2  0  0  0  0
 11 13  1  0  0  0  0
 13 14  1  0  0  0  0
 14 15  1  0  0  0  0
 15 16  2  0  0  0  0
 15 17  1  0  0  0  0
 17 18  1  0  0  0  0
 18 19  2  0  0  0  0
 19 20  1  0  0  0  0
 19 21  1  0  0  0  0
 21 22  2  0  0  0  0
 22 23  1  0  0  0  0
 22 24  1  0  0  0  0
 24 25  2  0  0  0  0
 25 26  1  0  0  0  0
 26 27  2  0  0  0  0
 27 28  1  0  0  0  0
 28 29  1  0  0  0  0
 28 30  2  0  0  0  0
 18 30  1  0  0  0  0
 24 30  1  0  0  0  0
 27 31  1  0  0  0  0
 26 32  1  0  0  0  0
 25 33  1  0  0  0  0
 17 34  1  0  0  0  0
 14 35  1  0  0  0  0
 35 36  2  0  0  0  0
 36 37  1  0  0  0  0
 36 38  1  0  0  0  0
 38 39  1  0  0  0  0
 38 40  2  0  0  0  0
 40 41  1  0  0  0  0
 40 42  1  0  0  0  0
 42 43  1  0  0  0  0
 42 44  2  0  0  0  0
 35 44  1  0  0  0  0
 44 45  1  0  0  0  0
 14 46  1  0  0  0  0
 13 47  1  0  0  0  0
 10 48  1  0  0  0  0
 10 49  1  0  0  0  0
  9 50  4  0  0  0  0
  2 50  4  0  0  0  0
 50 51  2  0  0  0  0
  1 52  1  0  0  0  0
  1 53  1  0  0  0  0
  1 54  1  0  0  0  0
M  END
> <Potency>
11.3094104721024

> <pIC50>
4.946560033039687

> <Outcome>
Inactive

> <is_active>
0

$$$$

  Mrv1921 08232120312D          

 56 59  0  0  0  0            999 V2000
    2.8579   -1.6500    0.0000 N   0  0  0  0  0  0  0  0  0  0  0  0
    3.5724   -1.2375    0.0000 C   0  0  0  0  0  0  0  0  0  0  0  0
    4.2868   -0.8250    0.0000 C   0  0  0  0  0  0  0  0  0  0  0  0
    4.2868    0.0000    0.0000 C   0  0  0  0  0  0  0  0  0  0  0  0
    3.5724    0.4125    0.0000 H   0  0  0  0  0  0  0  0  0  0  0  0
    5.0013    0.4125    0.0000 C   0  0  0  0  0  0  0  0  0  0  0  0
    5.0013    1.2375    0.0000 H   0  0  0  0  0  0  0  0  0  0  0  0
    5.7158    0.0000    0.0000 C   0  0  0  0  0  0  0  0  0  0  0  0
    6.4302    0.4125    0.0000 C   0  0  0  0  0  0  0  0  0  0  0  0
    6.4302    1.2375    0.0000 O   0  0  0  0  0  0  0  0  0  0  0  0
    7.1447    0.0000    0.0000 N   0  0  0  0  0  0  0  0  0  0  0  0
    7.8592    0.4125    0.0000 C   0  0  0  0  0  0  0  0  0  0  0  0
    8.5737    0.0000    0.0000 C   0  0  0  0  0  0  0  0  0  0  0  0
    8.5737   -0.8250    0.0000 O   0  0  0  0  0  0  0  0  0  0  0  0
    9.2881    0.4125    0.0000 N   0  0  0  0  0  0  0  0  0  0  0  0
   10.0026    0.0000    0.0000 C   0  0  0  0  0  0  0  0  0  0  0  0
   10.7171    0.4125    0.0000 C   0  0  0  0  0  0  0  0  0  0  0  0
   10.7171    1.2375    0.0000 O   0  0  0  0  0  0  0  0  0  0  0  0
   11.4315    0.0000    0.0000 N   0  0  0  0  0  0  0  0  0  0  0  0
   12.1460    0.4125    0.0000 C   0  0  0  0  0  0  0  0  0  0  0  0
   12.1460    1.2375    0.0000 C   0  0  0  0  0  0  0  0  0  0  0  0
   11.4315    1.6500    0.0000 H   0  0  0  0  0  0  0  0  0  0  0  0
   12.8605    1.6500    0.0000 N   0  0  0  0  0  0  0  0  0  0  0  0
   13.5749    1.2375    0.0000 C   0  0  0  0  0  0  0  0  0  0  0  0
   14.2894    1.6500    0.0000 H   0  0  0  0  0  0  0  0  0  0  0  0
   13.5749    0.4125    0.0000 C   0  0  0  0  0  0  0  0  0  0  0  0
   14.2894    0.0000    0.0000 C   0  0  0  0  0  0  0  0  0  0  0  0
   14.2894   -0.8250    0.0000 C   0  0  0  0  0  0  0  0  0  0  0  0
   13.5749   -1.2375    0.0000 C   0  0  0  0  0  0  0  0  0  0  0  0
   12.8605   -0.8250    0.0000 C   0  0  0  0  0  0  0  0  0  0  0  0
   12.1460   -1.2375    0.0000 H   0  0  0  0  0  0  0  0  0  0  0  0
   12.8605    0.0000    0.0000 C   0  0  0  0  0  0  0  0  0  0  0  0
   13.5749   -2.0625    0.0000 H   0  0  0  0  0  0  0  0  0  0  0  0
   15.0039   -1.2375    0.0000 H   0  0  0  0  0  0  0  0  0  0  0  0
   15.0039    0.4125    0.0000 H   0  0  0  0  0  0  0  0  0  0  0  0
   11.4315   -0.8250    0.0000 H   0  0  0  0  0  0  0  0  0  0  0  0
   10.0026   -0.8250    0.0000 C   0  0  0  0  0  0  0  0  0  0  0  0
   10.7171   -1.2375    0.0000 C   0  0  0  0  0  0  0  0  0  0  0  0
   10.7171   -0.4125    0.0000 H   0  0  0  0  0  0  0  0  0  0  0  0
   10.7171   -2.0625    0.0000 C   0  0  0  0  0  0  0  0  0  0  0  0
   11.4315   -2.4750    0.0000 H   0  0  0  0  0  0  0  0  0  0  0  0
   10.0026   -2.4750    0.0000 C   0  0  0  0  0  0  0  0  0  0  0  0
   10.0026   -3.3000    0.0000 H   0  0  0  0  0  0  0  0  0  0  0  0
    9.2881   -2.0625    0.0000 C   0  0  0  0  0  0  0  0  0  0  0  0
    8.5737   -2.4750    0.0000 Cl  0  0  0  0  0  0  0  0  0  0  0  0
    9.2881   -1.2375    0.0000 C   0  0  0  0  0  0  0  0  0  0  0  0
    9.2881   -0.4125    0.0000 H   0  0  0  0  0  0  0  0  0  0  0  0
   10.0026    0.8250    0.0000 H   0  0  0  0  0  0  0  0  0  0  0  0
    9.2881    1.2375    0.0000 H   0  0  0  0  0  0  0  0  0  0  0  0
    8.2294    1.1497    0.0000 H   0  0  0  0  0  0  0  0  0  0  0  0
    7.4889    1.1497    0.0000 H   0  0  0  0  0  0  0  0  0  0  0  0
    7.1447   -0.8250    0.0000 H   0  0  0  0  0  0  0  0  0  0  0  0
    5.7158   -0.8250    0.0000 C   0  0  0  0  0  0  0  0  0  0  0  0
    6.4302   -1.2375    0.0000 H   0  0  0  0  0  0  0  0  0  0  0  0
    5.0013   -1.2375    0.0000 C   0  0  0  0  0  0  0  0  0  0  0  0
    5.0013   -2.0625    0.0000 H   0  0  0  0  0  0  0  0  0  0  0  0
  1  2  3  0  0  0  0
  2  3  1  0  0  0  0
  3  4  2  0  0  0  0
  4  5  1  0  0  0  0
  4  6  1  0  0  0  0
  6  7  1  0  0  0  0
  6  8  2  0  0  0  0
  8  9  1  0  0  0  0
  9 10  2  0  0  0  0
  9 11  1  0  0  0  0
 11 12  1  0  0  0  0
 12 13  1  0  0  0  0
 13 14  2  0  0  0  0
 13 15  1  0  0  0  0
 15 16  1  0  0  0  0
 16 17  1  0  0  0  0
 17 18  2  0  0  0  0
 17 19  1  0  0  0  0
 19 20  1  0  0  0  0
 20 21  2  0  0  0  0
 21 22  1  0  0  0  0
 21 23  1  0  0  0  0
 23 24  2  0  0  0  0
 24 25  1  0  0  0  0
 24 26  1  0  0  0  0
 26 27  2  0  0  0  0
 27 28  1  0  0  0  0
 28 29  2  0  0  0  0
 29 30  1  0  0  0  0
 30 31  1  0  0  0  0
 30 32  2  0  0  0  0
 20 32  1  0  0  0  0
 26 32  1  0  0  0  0
 29 33  1  0  0  0  0
 28 34  1  0  0  0  0
 27 35  1  0  0  0  0
 19 36  1  0  0  0  0
 16 37  1  0  0  0  0
 37 38  2  0  0  0  0
 38 39  1  0  0  0  0
 38 40  1  0  0  0  0
 40 41  1  0  0  0  0
 40 42  2  0  0  0  0
 42 43  1  0  0  0  0
 42 44  1  0  0  0  0
 44 45  1  0  0  0  0
 44 46  2  0  0  0  0
 37 46  1  0  0  0  0
 46 47  1  0  0  0  0
 16 48  1  0  0  0  0
 15 49  1  0  0  0  0
 12 50  1  0  0  0  0
 12 51  1  0  0  0  0
 11 52  1  0  0  0  0
  8 53  1  0  0  0  0
 53 54  1  0  0  0  0
 53 55  2  0  0  0  0
  3 55  1  0  0  0  0
 55 56  1  0  0  0  0
M  END
> <Potency>
18.7281197092005

> <pIC50>
4.727505823314045

> <Outcome>
Inactive

> <is_active>
0

$$$$

  Mrv1921 08232120312D          

 52 55  0  0  0  0            999 V2000
    1.4289    0.8250    0.0000 N   0  0  0  0  0  0  0  0  0  0  0  0
    2.1434    0.4125    0.0000 C   0  0  0  0  0  0  0  0  0  0  0  0
    2.8579    0.0000    0.0000 C   0  0  0  0  0  0  0  0  0  0  0  0
    3.5724    0.4125    0.0000 C   0  0  0  0  0  0  0  0  0  0  0  0
    3.5724    1.2375    0.0000 H   0  0  0  0  0  0  0  0  0  0  0  0
    4.2868    0.0000    0.0000 N   0  0  0  0  0  0  0  0  0  0  0  0
    5.0013    0.4125    0.0000 C   0  0  0  0  0  0  0  0  0  0  0  0
    5.7158    0.0000    0.0000 C   0  0  0  0  0  0  0  0  0  0  0  0
    5.7158   -0.8250    0.0000 O   0  0  0  0  0  0  0  0  0  0  0  0
    6.4302    0.4125    0.0000 N   0  0  0  0  0  0  0  0  0  0  0  0
    7.1447    0.0000    0.0000 C   0  0  0  0  0  0  0  0  0  0  0  0
    7.8592    0.4125    0.0000 C   0  0  0  0  0  0  0  0  0  0  0  0
    7.8592    1.2375    0.0000 O   0  0  0  0  0  0  0  0  0  0  0  0
    8.5737    0.0000    0.0000 N   0  0  0  0  0  0  0  0  0  0  0  0
    9.2881    0.4125    0.0000 C   0  0  0  0  0  0  0  0  0  0  0  0
    9.2881    1.2375    0.0000 C   0  0  0  0  0  0  0  0  0  0  0  0
    8.5737    1.6500    0.0000 H   0  0  0  0  0  0  0  0  0  0  0  0
   10.0026    1.6500    0.0000 N   0  0  0  0  0  0  0  0  0  0  0  0
   10.7171    1.2375    0.0000 C   0  0  0  0  0  0  0  0  0  0  0  0
   11.4315    1.6500    0.0000 H   0  0  0  0  0  0  0  0  0  0  0  0
   10.7171    0.4125    0.0000 C   0  0  0  0  0  0  0  0  0  0  0  0
   11.4315    0.0000    0.0000 C   0  0  0  0  0  0  0  0  0  0  0  0
   11.4315   -0.8250    0.0000 C   0  0  0  0  0  0  0  0  0  0  0  0
   10.7171   -1.2375    0.0000 C   0  0  0  0  0  0  0  0  0  0  0  0
   10.0026   -0.8250    0.0000 C   0  0  0  0  0  0  0  0  0  0  0  0
    9.2881   -1.2375    0.0000 H   0  0  0  0  0  0  0  0  0  0  0  0
   10.0026    0.0000    0.0000 C   0  0  0  0  0  0  0  0  0  0  0  0
   10.7171   -2.0625    0.0000 H   0  0  0  0  0  0  0  0  0  0  0  0
   12.1460   -1.2375    0.0000 H   0  0  0  0  0  0  0  0  0  0  0  0
   12.1460    0.4125    0.0000 H   0  0  0  0  0  0  0  0  0  0  0  0
    8.5737   -0.8250    0.0000 H   0  0  0  0  0  0  0  0  0  0  0  0
    7.1447   -0.8250    0.0000 C   0  0  0  0  0  0  0  0  0  0  0  0
    7.8592   -1.2375    0.0000 C   0  0  0  0  0  0  0  0  0  0  0  0
    7.8592   -0.4125    0.0000 H   0  0  0  0  0  0  0  0  0  0  0  0
    7.8592   -2.0625    0.0000 C   0  0  0  0  0  0  0  0  0  0  0  0
    8.5737   -2.4750    0.0000 H   0  0  0  0  0  0  0  0  0  0  0  0
    7.1447   -2.4750    0.0000 C   0  0  0  0  0  0  0  0  0  0  0  0
    7.1447   -3.3000    0.0000 H   0  0  0  0  0  0  0  0  0  0  0  0
    6.4302   -2.0625    0.0000 C   0  0  0  0  0  0  0  0  0  0  0  0
    5.7158   -2.4750    0.0000 Cl  0  0  0  0  0  0  0  0  0  0  0  0
    6.4302   -1.2375    0.0000 C   0  0  0  0  0  0  0  0  0  0  0  0
    6.4302   -0.4125    0.0000 H   0  0  0  0  0  0  0  0  0  0  0  0
    7.1447    0.8250    0.0000 H   0  0  0  0  0  0  0  0  0  0  0  0
    6.4302    1.2375    0.0000 H   0  0  0  0  0  0  0  0  0  0  0  0
    5.3716    1.1497    0.0000 H   0  0  0  0  0  0  0  0  0  0  0  0
    4.6310    1.1497    0.0000 H   0  0  0  0  0  0  0  0  0  0  0  0
    4.2868   -0.8250    0.0000 C   0  0  0  0  0  0  0  0  0  0  0  0
    5.0013   -1.2375    0.0000 O   0  0  0  0  0  0  0  0  0  0  0  0
    3.5724   -1.2375    0.0000 N   0  0  0  0  0  0  0  0  0  0  0  0
    3.5724   -2.0625    0.0000 H   0  0  0  0  0  0  0  0  0  0  0  0
    2.8579   -0.8250    0.0000 C   0  0  0  0  0  0  0  0  0  0  0  0
    2.1434   -1.2375    0.0000 O   0  0  0  0  0  0  0  0  0  0  0  0
  1  2  3  0  0  0  0
  2  3  1  0  0  0  0
  3  4  4  0  0  0  0
  4  5  1  0  0  0  0
  4  6  4  0  0  0  0
  6  7  1  0  0  0  0
  7  8  1  0  0  0  0
  8  9  2  0  0  0  0
  8 10  1  0  0  0  0
 10 11  1  0  0  0  0
 11 12  1  0  0  0  0
 12 13  2  0  0  0  0
 12 14  1  0  0  0  0
 14 15  1  0  0  0  0
 15 16  2  0  0  0  0
 16 17  1  0  0  0  0
 16 18  1  0  0  0  0
 18 19  2  0  0  0  0
 19 20  1  0  0  0  0
 19 21  1  0  0  0  0
 21 22  2  0  0  0  0
 22 23  1  0  0  0  0
 23 24  2  0  0  0  0
 24 25  1  0  0  0  0
 25 26  1  0  0  0  0
 25 27  2  0  0  0  0
 15 27  1  0  0  0  0
 21 27  1  0  0  0  0
 24 28  1  0  0  0  0
 23 29  1  0  0  0  0
 22 30  1  0  0  0  0
 14 31  1  0  0  0  0
 11 32  1  0  0  0  0
 32 33  2  0  0  0  0
 33 34  1  0  0  0  0
 33 35  1  0  0  0  0
 35 36  1  0  0  0  0
 35 37  2  0  0  0  0
 37 38  1  0  0  0  0
 37 39  1  0  0  0  0
 39 40  1  0  0  0  0
 39 41  2  0  0  0  0
 32 41  1  0  0  0  0
 41 42  1  0  0  0  0
 11 43  1  0  0  0  0
 10 44  1  0  0  0  0
  7 45  1  0  0  0  0
  7 46  1  0  0  0  0
  6 47  4  0  0  0  0
 47 48  2  0  0  0  0
 47 49  4  0  0  0  0
 49 50  1  0  0  0  0
 49 51  4  0  0  0  0
  3 51  4  0  0  0  0
 51 52  2  0  0  0  0
M  END
> <Potency>
21.239836906775

> <pIC50>
4.672848822372093

> <Outcome>
Inactive

> <is_active>
0

$$$$

  Mrv1921 08232120312D          

 56 60  0  0  0  0            999 V2000
    5.7158   -0.8250    0.0000 O   0  0  0  0  0  0  0  0  0  0  0  0
    5.7158    0.0000    0.0000 C   0  0  0  0  0  0  0  0  0  0  0  0
    5.0013    0.4125    0.0000 C   0  0  0  0  0  0  0  0  0  0  0  0
    4.2868    0.0000    0.0000 N   0  0  0  0  0  0  0  0  0  0  0  0
    4.2006   -0.8205    0.0000 N   0  0  0  0  0  0  0  0  0  0  0  0
    3.3936   -0.9920    0.0000 N   0  0  0  0  0  0  0  0  0  0  0  0
    2.9811   -0.2775    0.0000 C   0  0  0  0  0  0  0  0  0  0  0  0
    2.1606   -0.1913    0.0000 C   0  0  0  0  0  0  0  0  0  0  0  0
    1.6757   -0.8587    0.0000 C   0  0  0  0  0  0  0  0  0  0  0  0
    2.0113   -1.6124    0.0000 H   0  0  0  0  0  0  0  0  0  0  0  0
    0.8552   -0.7725    0.0000 C   0  0  0  0  0  0  0  0  0  0  0  0
    0.3703   -1.4399    0.0000 H   0  0  0  0  0  0  0  0  0  0  0  0
    0.5197   -0.0188    0.0000 C   0  0  0  0  0  0  0  0  0  0  0  0
   -0.3008    0.0674    0.0000 H   0  0  0  0  0  0  0  0  0  0  0  0
    1.0046    0.6486    0.0000 C   0  0  0  0  0  0  0  0  0  0  0  0
    0.6690    1.4023    0.0000 H   0  0  0  0  0  0  0  0  0  0  0  0
    1.8251    0.5624    0.0000 C   0  0  0  0  0  0  0  0  0  0  0  0
    2.3100    1.2298    0.0000 H   0  0  0  0  0  0  0  0  0  0  0  0
    3.5332    0.3356    0.0000 N   0  0  0  0  0  0  0  0  0  0  0  0
    5.3716    1.1497    0.0000 H   0  0  0  0  0  0  0  0  0  0  0  0
    4.6310    1.1497    0.0000 H   0  0  0  0  0  0  0  0  0  0  0  0
    6.4302    0.4125    0.0000 N   0  0  0  0  0  0  0  0  0  0  0  0
    7.1447    0.0000    0.0000 C   0  0  0  0  0  0  0  0  0  0  0  0
    7.8592    0.4125    0.0000 C   0  0  0  0  0  0  0  0  0  0  0  0
    7.8592    1.2375    0.0000 O   0  0  0  0  0  0  0  0  0  0  0  0
    8.5737    0.0000    0.0000 N   0  0  0  0  0  0  0  0  0  0  0  0
    9.2881    0.4125    0.0000 C   0  0  0  0  0  0  0  0  0  0  0  0
    9.2881    1.2375    0.0000 C   0  0  0  0  0  0  0  0  0  0  0  0
    8.5737    1.6500    0.0000 H   0  0  0  0  0  0  0  0  0  0  0  0
   10.0026    1.6500    0.0000 N   0  0  0  0  0  0  0  0  0  0  0  0
   10.7171    1.2375    0.0000 C   0  0  0  0  0  0  0  0  0  0  0  0
   11.4315    1.6500    0.0000 H   0  0  0  0  0  0  0  0  0  0  0  0
   10.7171    0.4125    0.0000 C   0  0  0  0  0  0  0  0  0  0  0  0
   11.4315    0.0000    0.0000 C   0  0  0  0  0  0  0  0  0  0  0  0
   11.4315   -0.8250    0.0000 C   0  0  0  0  0  0  0  0  0  0  0  0
   10.7171   -1.2375    0.0000 C   0  0  0  0  0  0  0  0  0  0  0  0
   10.0026   -0.8250    0.0000 C   0  0  0  0  0  0  0  0  0  0  0  0
    9.2881   -1.2375    0.0000 H   0  0  0  0  0  0  0  0  0  0  0  0
   10.0026    0.0000    0.0000 C   0  0  0  0  0  0  0  0  0  0  0  0
   10.7171   -2.0625    0.0000 H   0  0  0  0  0  0  0  0  0  0  0  0
   12.1460   -1.2375    0.0000 H   0  0  0  0  0  0  0  0  0  0  0  0
   12.1460    0.4125    0.0000 H   0  0  0  0  0  0  0  0  0  0  0  0
    8.5737   -0.8250    0.0000 H   0  0  0  0  0  0  0  0  0  0  0  0
    7.1447   -0.8250    0.0000 C   0  0  0  0  0  0  0  0  0  0  0  0
    7.8592   -1.2375    0.0000 C   0  0  0  0  0  0  0  0  0  0  0  0
    7.8592   -0.4125    0.0000 H   0  0  0  0  0  0  0  0  0  0  0  0
    7.8592   -2.0625    0.0000 C   0  0  0  0  0  0  0  0  0  0  0  0
    8.5737   -2.4750    0.0000 H   0  0  0  0  0  0  0  0  0  0  0  0
    7.1447   -2.4750    0.0000 C   0  0  0  0  0  0  0  0  0  0  0  0
    7.1447   -3.3000    0.0000 H   0  0  0  0  0  0  0  0  0  0  0  0
    6.4302   -2.0625    0.0000 C   0  0  0  0  0  0  0  0  0  0  0  0
    5.7158   -2.4750    0.0000 Cl  0  0  0  0  0  0  0  0  0  0  0  0
    6.4302   -1.2375    0.0000 C   0  0  0  0  0  0  0  0  0  0  0  0
    6.4302   -0.4125    0.0000 H   0  0  0  0  0  0  0  0  0  0  0  0
    7.1447    0.8250    0.0000 H   0  0  0  0  0  0  0  0  0  0  0  0
    6.4302    1.2375    0.0000 H   0  0  0  0  0  0  0  0  0  0  0  0
  1  2  2  0  0  0  0
  2  3  1  0  0  0  0
  3  4  1  0  0  0  0
  4  5  1  0  0  0  0
  5  6  2  0  0  0  0
  6  7  1  0  0  0  0
  7  8  1  0  0  0  0
  8  9  2  0  0  0  0
  9 10  1  0  0  0  0
  9 11  1  0  0  0  0
 11 12  1  0  0  0  0
 11 13  2  0  0  0  0
 13 14  1  0  0  0  0
 13 15  1  0  0  0  0
 15 16  1  0  0  0  0
 15 17  2  0  0  0  0
  8 17  1  0  0  0  0
 17 18  1  0  0  0  0
  7 19  2  0  0  0  0
  4 19  1  0  0  0  0
  3 20  1  0  0  0  0
  3 21  1  0  0  0  0
  2 22  1  0  0  0  0
 22 23  1  0  0  0  0
 23 24  1  0  0  0  0
 24 25  2  0  0  0  0
 24 26  1  0  0  0  0
 26 27  1  0  0  0  0
 27 28  2  0  0  0  0
 28 29  1  0  0  0  0
 28 30  1  0  0  0  0
 30 31  2  0  0  0  0
 31 32  1  0  0  0  0
 31 33  1  0  0  0  0
 33 34  2  0  0  0  0
 34 35  1  0  0  0  0
 35 36  2  0  0  0  0
 36 37  1  0  0  0  0
 37 38  1  0  0  0  0
 37 39  2  0  0  0  0
 27 39  1  0  0  0  0
 33 39  1  0  0  0  0
 36 40  1  0  0  0  0
 35 41  1  0  0  0  0
 34 42  1  0  0  0  0
 26 43  1  0  0  0  0
 23 44  1  0  0  0  0
 44 45  2  0  0  0  0
 45 46  1  0  0  0  0
 45 47  1  0  0  0  0
 47 48  1  0  0  0  0
 47 49  2  0  0  0  0
 49 50  1  0  0  0  0
 49 51  1  0  0  0  0
 51 52  1  0  0  0  0
 51 53  2  0  0  0  0
 44 53  1  0  0  0  0
 53 54  1  0  0  0  0
 23 55  1  0  0  0  0
 22 56  1  0  0  0  0
M  END
> <Potency>
18.2857156246282

> <pIC50>
4.737888038566542

> <Outcome>
Inactive

> <is_active>
0

$$$$

  Mrv1921 08232120312D          

 50 53  0  0  0  0            999 V2000
    5.7158   -0.8250    0.0000 O   0  0  0  0  0  0  0  0  0  0  0  0
    5.7158    0.0000    0.0000 C   0  0  0  0  0  0  0  0  0  0  0  0
    5.0013    0.4125    0.0000 C   0  0  0  0  0  0  0  0  0  0  0  0
    4.2868    0.0000    0.0000 N   0  0  0  0  0  0  0  0  0  0  0  0
    4.2006   -0.8205    0.0000 C   0  0  0  0  0  0  0  0  0  0  0  0
    4.8137   -1.3725    0.0000 H   0  0  0  0  0  0  0  0  0  0  0  0
    3.3936   -0.9920    0.0000 N   0  0  0  0  0  0  0  0  0  0  0  0
    2.9811   -0.2775    0.0000 C   0  0  0  0  0  0  0  0  0  0  0  0
    2.1606   -0.1913    0.0000 C   0  0  0  0  0  0  0  0  0  0  0  0
    1.3402   -0.1051    0.0000 F   0  0  0  0  0  0  0  0  0  0  0  0
    2.0744   -1.0118    0.0000 F   0  0  0  0  0  0  0  0  0  0  0  0
    2.2469    0.6292    0.0000 F   0  0  0  0  0  0  0  0  0  0  0  0
    3.5332    0.3356    0.0000 N   0  0  0  0  0  0  0  0  0  0  0  0
    5.3716    1.1497    0.0000 H   0  0  0  0  0  0  0  0  0  0  0  0
    4.6310    1.1497    0.0000 H   0  0  0  0  0  0  0  0  0  0  0  0
    6.4302    0.4125    0.0000 N   0  0  0  0  0  0  0  0  0  0  0  0
    7.1447    0.0000    0.0000 C   0  0  0  0  0  0  0  0  0  0  0  0
    7.8592    0.4125    0.0000 C   0  0  0  0  0  0  0  0  0  0  0  0
    7.8592    1.2375    0.0000 O   0  0  0  0  0  0  0  0  0  0  0  0
    8.5737    0.0000    0.0000 N   0  0  0  0  0  0  0  0  0  0  0  0
    9.2881    0.4125    0.0000 C   0  0  0  0  0  0  0  0  0  0  0  0
    9.2881    1.2375    0.0000 C   0  0  0  0  0  0  0  0  0  0  0  0
    8.5737    1.6500    0.0000 H   0  0  0  0  0  0  0  0  0  0  0  0
   10.0026    1.6500    0.0000 N   0  0  0  0  0  0  0  0  0  0  0  0
   10.7171    1.2375    0.0000 C   0  0  0  0  0  0  0  0  0  0  0  0
   11.4315    1.6500    0.0000 H   0  0  0  0  0  0  0  0  0  0  0  0
   10.7171    0.4125    0.0000 C   0  0  0  0  0  0  0  0  0  0  0  0
   11.4315    0.0000    0.0000 C   0  0  0  0  0  0  0  0  0  0  0  0
   11.4315   -0.8250    0.0000 C   0  0  0  0  0  0  0  0  0  0  0  0
   10.7171   -1.2375    0.0000 C   0  0  0  0  0  0  0  0  0  0  0  0
   10.0026   -0.8250    0.0000 C   0  0  0  0  0  0  0  0  0  0  0  0
    9.2881   -1.2375    0.0000 H   0  0  0  0  0  0  0  0  0  0  0  0
   10.0026    0.0000    0.0000 C   0  0  0  0  0  0  0  0  0  0  0  0
   10.7171   -2.0625    0.0000 H   0  0  0  0  0  0  0  0  0  0  0  0
   12.1460   -1.2375    0.0000 H   0  0  0  0  0  0  0  0  0  0  0  0
   12.1460    0.4125    0.0000 H   0  0  0  0  0  0  0  0  0  0  0  0
    8.5737   -0.8250    0.0000 H   0  0  0  0  0  0  0  0  0  0  0  0
    7.1447   -0.8250    0.0000 C   0  0  0  0  0  0  0  0  0  0  0  0
    7.8592   -1.2375    0.0000 C   0  0  0  0  0  0  0  0  0  0  0  0
    7.8592   -0.4125    0.0000 H   0  0  0  0  0  0  0  0  0  0  0  0
    7.8592   -2.0625    0.0000 C   0  0  0  0  0  0  0  0  0  0  0  0
    8.5737   -2.4750    0.0000 H   0  0  0  0  0  0  0  0  0  0  0  0
    7.1447   -2.4750    0.0000 C   0  0  0  0  0  0  0  0  0  0  0  0
    7.1447   -3.3000    0.0000 H   0  0  0  0  0  0  0  0  0  0  0  0
    6.4302   -2.0625    0.0000 C   0  0  0  0  0  0  0  0  0  0  0  0
    5.7158   -2.4750    0.0000 Cl  0  0  0  0  0  0  0  0  0  0  0  0
    6.4302   -1.2375    0.0000 C   0  0  0  0  0  0  0  0  0  0  0  0
    6.4302   -0.4125    0.0000 H   0  0  0  0  0  0  0  0  0  0  0  0
    7.1447    0.8250    0.0000 H   0  0  0  0  0  0  0  0  0  0  0  0
    6.4302    1.2375    0.0000 H   0  0  0  0  0  0  0  0  0  0  0  0
  1  2  2  0  0  0  0
  2  3  1  0  0  0  0
  3  4  1  0  0  0  0
  4  5  1  0  0  0  0
  5  6  1  0  0  0  0
  5  7  2  0  0  0  0
  7  8  1  0  0  0  0
  8  9  1  0  0  0  0
  9 10  1  0  0  0  0
  9 11  1  0  0  0  0
  9 12  1  0  0  0  0
  8 13  2  0  0  0  0
  4 13  1  0  0  0  0
  3 14  1  0  0  0  0
  3 15  1  0  0  0  0
  2 16  1  0  0  0  0
 16 17  1  0  0  0  0
 17 18  1  0  0  0  0
 18 19  2  0  0  0  0
 18 20  1  0  0  0  0
 20 21  1  0  0  0  0
 21 22  2  0  0  0  0
 22 23  1  0  0  0  0
 22 24  1  0  0  0  0
 24 25  2  0  0  0  0
 25 26  1  0  0  0  0
 25 27  1  0  0  0  0
 27 28  2  0  0  0  0
 28 29  1  0  0  0  0
 29 30  2  0  0  0  0
 30 31  1  0  0  0  0
 31 32  1  0  0  0  0
 31 33  2  0  0  0  0
 21 33  1  0  0  0  0
 27 33  1  0  0  0  0
 30 34  1  0  0  0  0
 29 35  1  0  0  0  0
 28 36  1  0  0  0  0
 20 37  1  0  0  0  0
 17 38  1  0  0  0  0
 38 39  2  0  0  0  0
 39 40  1  0  0  0  0
 39 41  1  0  0  0  0
 41 42  1  0  0  0  0
 41 43  2  0  0  0  0
 43 44  1  0  0  0  0
 43 45  1  0  0  0  0
 45 46  1  0  0  0  0
 45 47  2  0  0  0  0
 38 47  1  0  0  0  0
 47 48  1  0  0  0  0
 17 49  1  0  0  0  0
 16 50  1  0  0  0  0
M  END
> <Potency>
13.6449983563873

> <pIC50>
4.865026512307163

> <Outcome>
Inactive

> <is_active>
0

$$$$

  Mrv1921 08232120312D          

 56 60  0  0  0  0            999 V2000
    5.7158   -0.8250    0.0000 O   0  0  0  0  0  0  0  0  0  0  0  0
    5.7158    0.0000    0.0000 C   0  0  0  0  0  0  0  0  0  0  0  0
    5.0013    0.4125    0.0000 C   0  0  0  0  0  0  0  0  0  0  0  0
    4.2868    0.0000    0.0000 C   0  0  0  0  0  0  0  0  0  0  0  0
    4.2868   -0.8250    0.0000 C   0  0  0  0  0  0  0  0  0  0  0  0
    5.0013   -1.2375    0.0000 H   0  0  0  0  0  0  0  0  0  0  0  0
    3.5724   -1.2375    0.0000 C   0  0  0  0  0  0  0  0  0  0  0  0
    3.5724   -2.0625    0.0000 H   0  0  0  0  0  0  0  0  0  0  0  0
    2.8579   -0.8250    0.0000 C   0  0  0  0  0  0  0  0  0  0  0  0
    2.1434   -1.2375    0.0000 N   0  0  0  0  0  0  0  0  0  0  0  0
    2.0572   -2.0580    0.0000 C   0  0  0  0  0  0  0  0  0  0  0  0
    2.6703   -2.6100    0.0000 H   0  0  0  0  0  0  0  0  0  0  0  0
    1.2502   -2.2295    0.0000 N   0  0  0  0  0  0  0  0  0  0  0  0
    0.8377   -1.5150    0.0000 N   0  0  0  0  0  0  0  0  0  0  0  0
    1.3897   -0.9019    0.0000 N   0  0  0  0  0  0  0  0  0  0  0  0
    2.8579    0.0000    0.0000 C   0  0  0  0  0  0  0  0  0  0  0  0
    2.1434    0.4125    0.0000 H   0  0  0  0  0  0  0  0  0  0  0  0
    3.5724    0.4125    0.0000 C   0  0  0  0  0  0  0  0  0  0  0  0
    3.5724    1.2375    0.0000 H   0  0  0  0  0  0  0  0  0  0  0  0
    5.3716    1.1497    0.0000 H   0  0  0  0  0  0  0  0  0  0  0  0
    4.6310    1.1497    0.0000 H   0  0  0  0  0  0  0  0  0  0  0  0
    6.4302    0.4125    0.0000 N   0  0  0  0  0  0  0  0  0  0  0  0
    7.1447    0.0000    0.0000 C   0  0  0  0  0  0  0  0  0  0  0  0
    7.8592    0.4125    0.0000 C   0  0  0  0  0  0  0  0  0  0  0  0
    7.8592    1.2375    0.0000 O   0  0  0  0  0  0  0  0  0  0  0  0
    8.5737    0.0000    0.0000 N   0  0  0  0  0  0  0  0  0  0  0  0
    9.2881    0.4125    0.0000 C   0  0  0  0  0  0  0  0  0  0  0  0
    9.2881    1.2375    0.0000 C   0  0  0  0  0  0  0  0  0  0  0  0
    8.5737    1.6500    0.0000 H   0  0  0  0  0  0  0  0  0  0  0  0
   10.0026    1.6500    0.0000 N   0  0  0  0  0  0  0  0  0  0  0  0
   10.7171    1.2375    0.0000 C   0  0  0  0  0  0  0  0  0  0  0  0
   11.4315    1.6500    0.0000 H   0  0  0  0  0  0  0  0  0  0  0  0
   10.7171    0.4125    0.0000 C   0  0  0  0  0  0  0  0  0  0  0  0
   11.4315    0.0000    0.0000 C   0  0  0  0  0  0  0  0  0  0  0  0
   11.4315   -0.8250    0.0000 C   0  0  0  0  0  0  0  0  0  0  0  0
   10.7171   -1.2375    0.0000 C   0  0  0  0  0  0  0  0  0  0  0  0
   10.0026   -0.8250    0.0000 C   0  0  0  0  0  0  0  0  0  0  0  0
    9.2881   -1.2375    0.0000 H   0  0  0  0  0  0  0  0  0  0  0  0
   10.0026    0.0000    0.0000 C   0  0  0  0  0  0  0  0  0  0  0  0
   10.7171   -2.0625    0.0000 H   0  0  0  0  0  0  0  0  0  0  0  0
   12.1460   -1.2375    0.0000 H   0  0  0  0  0  0  0  0  0  0  0  0
   12.1460    0.4125    0.0000 H   0  0  0  0  0  0  0  0  0  0  0  0
    8.5737   -0.8250    0.0000 H   0  0  0  0  0  0  0  0  0  0  0  0
    7.1447   -0.8250    0.0000 C   0  0  0  0  0  0  0  0  0  0  0  0
    7.8592   -1.2375    0.0000 C   0  0  0  0  0  0  0  0  0  0  0  0
    7.8592   -0.4125    0.0000 H   0  0  0  0  0  0  0  0  0  0  0  0
    7.8592   -2.0625    0.0000 C   0  0  0  0  0  0  0  0  0  0  0  0
    8.5737   -2.4750    0.0000 H   0  0  0  0  0  0  0  0  0  0  0  0
    7.1447   -2.4750    0.0000 C   0  0  0  0  0  0  0  0  0  0  0  0
    7.1447   -3.3000    0.0000 H   0  0  0  0  0  0  0  0  0  0  0  0
    6.4302   -2.0625    0.0000 C   0  0  0  0  0  0  0  0  0  0  0  0
    5.7158   -2.4750    0.0000 Cl  0  0  0  0  0  0  0  0  0  0  0  0
    6.4302   -1.2375    0.0000 C   0  0  0  0  0  0  0  0  0  0  0  0
    6.4302   -0.4125    0.0000 H   0  0  0  0  0  0  0  0  0  0  0  0
    7.1447    0.8250    0.0000 H   0  0  0  0  0  0  0  0  0  0  0  0
    6.4302    1.2375    0.0000 H   0  0  0  0  0  0  0  0  0  0  0  0
  1  2  2  0  0  0  0
  2  3  1  0  0  0  0
  3  4  1  0  0  0  0
  4  5  2  0  0  0  0
  5  6  1  0  0  0  0
  5  7  1  0  0  0  0
  7  8  1  0  0  0  0
  7  9  2  0  0  0  0
  9 10  1  0  0  0  0
 10 11  1  0  0  0  0
 11 12  1  0  0  0  0
 11 13  2  0  0  0  0
 13 14  1  0  0  0  0
 14 15  2  0  0  0  0
 10 15  1  0  0  0  0
  9 16  1  0  0  0  0
 16 17  1  0  0  0  0
 16 18  2  0  0  0  0
  4 18  1  0  0  0  0
 18 19  1  0  0  0  0
  3 20  1  0  0  0  0
  3 21  1  0  0  0  0
  2 22  1  0  0  0  0
 22 23  1  0  0  0  0
 23 24  1  0  0  0  0
 24 25  2  0  0  0  0
 24 26  1  0  0  0  0
 26 27  1  0  0  0  0
 27 28  2  0  0  0  0
 28 29  1  0  0  0  0
 28 30  1  0  0  0  0
 30 31  2  0  0  0  0
 31 32  1  0  0  0  0
 31 33  1  0  0  0  0
 33 34  2  0  0  0  0
 34 35  1  0  0  0  0
 35 36  2  0  0  0  0
 36 37  1  0  0  0  0
 37 38  1  0  0  0  0
 37 39  2  0  0  0  0
 27 39  1  0  0  0  0
 33 39  1  0  0  0  0
 36 40  1  0  0  0  0
 35 41  1  0  0  0  0
 34 42  1  0  0  0  0
 26 43  1  0  0  0  0
 23 44  1  0  0  0  0
 44 45  2  0  0  0  0
 45 46  1  0  0  0  0
 45 47  1  0  0  0  0
 47 48  1  0  0  0  0
 47 49  2  0  0  0  0
 49 50  1  0  0  0  0
 49 51  1  0  0  0  0
 51 52  1  0  0  0  0
 51 53  2  0  0  0  0
 44 53  1  0  0  0  0
 53 54  1  0  0  0  0
 23 55  1  0  0  0  0
 22 56  1  0  0  0  0
M  END
> <Potency>
10.2511787022772

> <pIC50>
4.989226195636151

> <Outcome>
Inactive

> <is_active>
0

$$$$

  Mrv1921 08232120312D          

 68 72  0  0  0  0            999 V2000
    4.3209   -3.0075    0.0000 C   0  0  0  0  0  0  0  0  0  0  0  0
    3.5084   -2.8642    0.0000 C   0  0  0  0  0  0  0  0  0  0  0  0
    2.9781   -3.4962    0.0000 C   0  0  0  0  0  0  0  0  0  0  0  0
    2.8823   -4.3156    0.0000 H   0  0  0  0  0  0  0  0  0  0  0  0
    3.5782   -4.0624    0.0000 H   0  0  0  0  0  0  0  0  0  0  0  0
    2.1656   -3.3529    0.0000 N   0  0  0  0  0  0  0  0  0  0  0  0
    1.6353   -3.9849    0.0000 C   0  0  0  0  0  0  0  0  0  0  0  0
    0.8229   -3.8417    0.0000 C   0  0  0  0  0  0  0  0  0  0  0  0
    0.2926   -4.4737    0.0000 O   0  0  0  0  0  0  0  0  0  0  0  0
   -0.5199   -4.3304    0.0000 H   0  0  0  0  0  0  0  0  0  0  0  0
    0.9186   -3.0223    0.0000 H   0  0  0  0  0  0  0  0  0  0  0  0
    0.2228   -3.2755    0.0000 H   0  0  0  0  0  0  0  0  0  0  0  0
    1.5396   -4.8044    0.0000 H   0  0  0  0  0  0  0  0  0  0  0  0
    2.2354   -4.5511    0.0000 H   0  0  0  0  0  0  0  0  0  0  0  0
    1.8835   -2.5777    0.0000 C   0  0  0  0  0  0  0  0  0  0  0  0
    1.2217   -2.0850    0.0000 H   0  0  0  0  0  0  0  0  0  0  0  0
    1.0931   -2.8143    0.0000 H   0  0  0  0  0  0  0  0  0  0  0  0
    2.4138   -1.9457    0.0000 C   0  0  0  0  0  0  0  0  0  0  0  0
    2.5095   -1.1263    0.0000 H   0  0  0  0  0  0  0  0  0  0  0  0
    1.8137   -1.3796    0.0000 H   0  0  0  0  0  0  0  0  0  0  0  0
    3.2262   -2.0890    0.0000 N   0  0  0  0  0  0  0  0  0  0  0  0
    3.7565   -1.4570    0.0000 C   0  0  0  0  0  0  0  0  0  0  0  0
    3.4744   -0.6817    0.0000 O   0  0  0  0  0  0  0  0  0  0  0  0
    4.5690   -1.6002    0.0000 C   0  0  0  0  0  0  0  0  0  0  0  0
    5.0993   -0.9683    0.0000 C   0  0  0  0  0  0  0  0  0  0  0  0
    5.6296   -1.6002    0.0000 C   0  0  0  0  0  0  0  0  0  0  0  0
    6.4421   -1.4570    0.0000 O   0  0  0  0  0  0  0  0  0  0  0  0
    5.3474   -2.3755    0.0000 N   0  0  0  0  0  0  0  0  0  0  0  0
    5.8777   -3.0075    0.0000 C   0  0  0  0  0  0  0  0  0  0  0  0
    6.6902   -2.8642    0.0000 C   0  0  0  0  0  0  0  0  0  0  0  0
    7.3222   -2.3339    0.0000 H   0  0  0  0  0  0  0  0  0  0  0  0
    7.2205   -3.4962    0.0000 N   0  0  0  0  0  0  0  0  0  0  0  0
    6.9383   -4.2715    0.0000 C   0  0  0  0  0  0  0  0  0  0  0  0
    7.4686   -4.9034    0.0000 H   0  0  0  0  0  0  0  0  0  0  0  0
    6.1259   -4.4147    0.0000 C   0  0  0  0  0  0  0  0  0  0  0  0
    5.8437   -5.1900    0.0000 C   0  0  0  0  0  0  0  0  0  0  0  0
    5.0312   -5.3332    0.0000 C   0  0  0  0  0  0  0  0  0  0  0  0
    4.5009   -4.7012    0.0000 C   0  0  0  0  0  0  0  0  0  0  0  0
    4.7831   -3.9260    0.0000 C   0  0  0  0  0  0  0  0  0  0  0  0
    5.3134   -4.5580    0.0000 H   0  0  0  0  0  0  0  0  0  0  0  0
    5.5956   -3.7827    0.0000 C   0  0  0  0  0  0  0  0  0  0  0  0
    3.7870   -5.1146    0.0000 H   0  0  0  0  0  0  0  0  0  0  0  0
    4.7491   -6.1085    0.0000 H   0  0  0  0  0  0  0  0  0  0  0  0
    6.3740   -5.8219    0.0000 H   0  0  0  0  0  0  0  0  0  0  0  0
    6.1599   -2.2322    0.0000 H   0  0  0  0  0  0  0  0  0  0  0  0
    4.3848   -0.5558    0.0000 C   0  0  0  0  0  0  0  0  0  0  0  0
    5.0993   -0.1433    0.0000 H   0  0  0  0  0  0  0  0  0  0  0  0
    3.7628   -0.0138    0.0000 H   0  0  0  0  0  0  0  0  0  0  0  0
    4.3848    0.2692    0.0000 C   0  0  0  0  0  0  0  0  0  0  0  0
    4.4114    1.0938    0.0000 H   0  0  0  0  0  0  0  0  0  0  0  0
    3.6984    0.7268    0.0000 H   0  0  0  0  0  0  0  0  0  0  0  0
    5.0993    0.6817    0.0000 O   0  0  0  0  0  0  0  0  0  0  0  0
    5.8138    0.2692    0.0000 C   0  0  0  0  0  0  0  0  0  0  0  0
    6.5282    0.6817    0.0000 C   0  0  0  0  0  0  0  0  0  0  0  0
    7.2427    0.2692    0.0000 C   0  0  0  0  0  0  0  0  0  0  0  0
    7.2427   -0.5558    0.0000 C   0  0  0  0  0  0  0  0  0  0  0  0
    7.9572   -0.9683    0.0000 Cl  0  0  0  0  0  0  0  0  0  0  0  0
    6.5282   -0.9683    0.0000 C   0  0  0  0  0  0  0  0  0  0  0  0
    7.2040   -1.4415    0.0000 H   0  0  0  0  0  0  0  0  0  0  0  0
    5.8138   -0.5558    0.0000 C   0  0  0  0  0  0  0  0  0  0  0  0
    7.9572    0.6817    0.0000 H   0  0  0  0  0  0  0  0  0  0  0  0
    6.5282    1.5067    0.0000 H   0  0  0  0  0  0  0  0  0  0  0  0
    5.3167   -1.9489    0.0000 H   0  0  0  0  0  0  0  0  0  0  0  0
    4.2868   -0.8250    0.0000 H   0  0  0  0  0  0  0  0  0  0  0  0
    4.0387   -2.2322    0.0000 H   0  0  0  0  0  0  0  0  0  0  0  0
    4.1776   -3.8199    0.0000 H   0  0  0  0  0  0  0  0  0  0  0  0
    5.1333   -3.1507    0.0000 H   0  0  0  0  0  0  0  0  0  0  0  0
    4.4641   -2.1950    0.0000 H   0  0  0  0  0  0  0  0  0  0  0  0
  1  2  1  0  0  0  0
  2  3  1  0  0  0  0
  3  4  1  0  0  0  0
  3  5  1  0  0  0  0
  3  6  1  0  0  0  0
  6  7  1  0  0  0  0
  7  8  1  0  0  0  0
  8  9  1  0  0  0  0
  9 10  1  0  0  0  0
  8 11  1  0  0  0  0
  8 12  1  0  0  0  0
  7 13  1  0  0  0  0
  7 14  1  0  0  0  0
  6 15  1  0  0  0  0
 15 16  1  0  0  0  0
 15 17  1  0  0  0  0
 15 18  1  0  0  0  0
 18 19  1  0  0  0  0
 18 20  1  0  0  0  0
 18 21  1  0  0  0  0
  2 21  1  0  0  0  0
 21 22  1  0  0  0  0
 22 23  2  0  0  0  0
 22 24  1  0  0  0  0
 24 25  1  0  0  0  0
 25 26  1  0  0  0  0
 26 27  2  0  0  0  0
 26 28  1  0  0  0  0
 28 29  1  0  0  0  0
 29 30  2  0  0  0  0
 30 31  1  0  0  0  0
 30 32  1  0  0  0  0
 32 33  2  0  0  0  0
 33 34  1  0  0  0  0
 33 35  1  0  0  0  0
 35 36  2  0  0  0  0
 36 37  1  0  0  0  0
 37 38  2  0  0  0  0
 38 39  1  0  0  0  0
 39 40  1  0  0  0  0
 39 41  2  0  0  0  0
 29 41  1  0  0  0  0
 35 41  1  0  0  0  0
 38 42  1  0  0  0  0
 37 43  1  0  0  0  0
 36 44  1  0  0  0  0
 28 45  1  0  0  0  0
 25 46  1  0  0  0  0
 46 47  1  0  0  0  0
 46 48  1  0  0  0  0
 46 49  1  0  0  0  0
 49 50  1  0  0  0  0
 49 51  1  0  0  0  0
 49 52  1  0  0  0  0
 52 53  1  0  0  0  0
 53 54  2  0  0  0  0
 54 55  1  0  0  0  0
 55 56  2  0  0  0  0
 56 57  1  0  0  0  0
 56 58  1  0  0  0  0
 58 59  1  0  0  0  0
 58 60  2  0  0  0  0
 25 60  1  0  0  0  0
 53 60  1  0  0  0  0
 55 61  1  0  0  0  0
 54 62  1  0  0  0  0
 24 63  1  0  0  0  0
 24 64  1  0  0  0  0
  2 65  1  0  0  0  0
  1 66  1  0  0  0  0
  1 67  1  0  0  0  0
  1 68  1  0  0  0  0
M  END
> <Potency>
14.5316267968552

> <pIC50>
4.837685764273931

> <Outcome>
Inactive

> <is_active>
0

$$$$

  Mrv1921 08232120312D          

 71 75  0  0  0  0            999 V2000
    0.1084   -2.6042    0.0000 C   0  0  0  0  0  0  0  0  0  0  0  0
    0.9209   -2.7474    0.0000 N   0  0  0  0  0  0  0  0  0  0  0  0
    1.2030   -3.5227    0.0000 C   0  0  0  0  0  0  0  0  0  0  0  0
    0.6727   -4.1547    0.0000 C   0  0  0  0  0  0  0  0  0  0  0  0
    0.9549   -4.9299    0.0000 O   0  0  0  0  0  0  0  0  0  0  0  0
    0.4246   -5.5619    0.0000 H   0  0  0  0  0  0  0  0  0  0  0  0
    0.0110   -3.6620    0.0000 H   0  0  0  0  0  0  0  0  0  0  0  0
   -0.1176   -4.3913    0.0000 H   0  0  0  0  0  0  0  0  0  0  0  0
    1.8648   -4.0153    0.0000 H   0  0  0  0  0  0  0  0  0  0  0  0
    1.9934   -3.2861    0.0000 H   0  0  0  0  0  0  0  0  0  0  0  0
    1.4512   -2.1154    0.0000 C   0  0  0  0  0  0  0  0  0  0  0  0
    1.1690   -1.3402    0.0000 C   0  0  0  0  0  0  0  0  0  0  0  0
    0.5072   -0.8475    0.0000 H   0  0  0  0  0  0  0  0  0  0  0  0
    0.3786   -1.5768    0.0000 H   0  0  0  0  0  0  0  0  0  0  0  0
    1.6993   -0.7082    0.0000 C   0  0  0  0  0  0  0  0  0  0  0  0
    1.7951    0.1112    0.0000 H   0  0  0  0  0  0  0  0  0  0  0  0
    1.0992   -0.1421    0.0000 H   0  0  0  0  0  0  0  0  0  0  0  0
    2.5118   -0.8515    0.0000 N   0  0  0  0  0  0  0  0  0  0  0  0
    3.0421   -0.2195    0.0000 C   0  0  0  0  0  0  0  0  0  0  0  0
    2.7599    0.5558    0.0000 O   0  0  0  0  0  0  0  0  0  0  0  0
    3.8545   -0.3627    0.0000 C   0  0  0  0  0  0  0  0  0  0  0  0
    4.3848    0.2692    0.0000 C   0  0  0  0  0  0  0  0  0  0  0  0
    4.9151   -0.3627    0.0000 C   0  0  0  0  0  0  0  0  0  0  0  0
    4.6330   -1.1380    0.0000 O   0  0  0  0  0  0  0  0  0  0  0  0
    5.7276   -0.2195    0.0000 N   0  0  0  0  0  0  0  0  0  0  0  0
    6.2579   -0.8515    0.0000 C   0  0  0  0  0  0  0  0  0  0  0  0
    7.0704   -0.7082    0.0000 C   0  0  0  0  0  0  0  0  0  0  0  0
    7.7121   -0.1898    0.0000 H   0  0  0  0  0  0  0  0  0  0  0  0
    7.6007   -1.3402    0.0000 N   0  0  0  0  0  0  0  0  0  0  0  0
    7.3185   -2.1154    0.0000 C   0  0  0  0  0  0  0  0  0  0  0  0
    7.8488   -2.7474    0.0000 H   0  0  0  0  0  0  0  0  0  0  0  0
    6.5060   -2.2587    0.0000 C   0  0  0  0  0  0  0  0  0  0  0  0
    6.2239   -3.0340    0.0000 C   0  0  0  0  0  0  0  0  0  0  0  0
    5.4114   -3.1772    0.0000 C   0  0  0  0  0  0  0  0  0  0  0  0
    4.8811   -2.5452    0.0000 C   0  0  0  0  0  0  0  0  0  0  0  0
    5.1633   -1.7700    0.0000 C   0  0  0  0  0  0  0  0  0  0  0  0
    5.4454   -0.9947    0.0000 H   0  0  0  0  0  0  0  0  0  0  0  0
    5.9757   -1.6267    0.0000 C   0  0  0  0  0  0  0  0  0  0  0  0
    4.0686   -2.6885    0.0000 H   0  0  0  0  0  0  0  0  0  0  0  0
    5.1292   -3.9525    0.0000 H   0  0  0  0  0  0  0  0  0  0  0  0
    6.7542   -3.6659    0.0000 H   0  0  0  0  0  0  0  0  0  0  0  0
    6.5245   -0.0060    0.0000 H   0  0  0  0  0  0  0  0  0  0  0  0
    3.6704    0.6817    0.0000 C   0  0  0  0  0  0  0  0  0  0  0  0
    3.5121   -0.1279    0.0000 H   0  0  0  0  0  0  0  0  0  0  0  0
    4.3848    1.0942    0.0000 H   0  0  0  0  0  0  0  0  0  0  0  0
    3.6704    1.5067    0.0000 C   0  0  0  0  0  0  0  0  0  0  0  0
    3.2170    2.1960    0.0000 H   0  0  0  0  0  0  0  0  0  0  0  0
    2.8467    1.5547    0.0000 H   0  0  0  0  0  0  0  0  0  0  0  0
    4.3848    1.9192    0.0000 O   0  0  0  0  0  0  0  0  0  0  0  0
    5.0993    1.5067    0.0000 C   0  0  0  0  0  0  0  0  0  0  0  0
    5.8138    1.9192    0.0000 C   0  0  0  0  0  0  0  0  0  0  0  0
    6.5282    1.5067    0.0000 C   0  0  0  0  0  0  0  0  0  0  0  0
    6.5282    0.6817    0.0000 C   0  0  0  0  0  0  0  0  0  0  0  0
    7.2427    0.2692    0.0000 Cl  0  0  0  0  0  0  0  0  0  0  0  0
    5.8138    0.2692    0.0000 C   0  0  0  0  0  0  0  0  0  0  0  0
    5.0661   -0.0794    0.0000 H   0  0  0  0  0  0  0  0  0  0  0  0
    5.0993    0.6817    0.0000 C   0  0  0  0  0  0  0  0  0  0  0  0
    7.2427    1.9192    0.0000 H   0  0  0  0  0  0  0  0  0  0  0  0
    5.8138    2.7442    0.0000 H   0  0  0  0  0  0  0  0  0  0  0  0
    3.7587   -1.1822    0.0000 H   0  0  0  0  0  0  0  0  0  0  0  0
    4.4546   -0.9289    0.0000 H   0  0  0  0  0  0  0  0  0  0  0  0
    2.7939   -1.6267    0.0000 C   0  0  0  0  0  0  0  0  0  0  0  0
    3.4557   -2.1194    0.0000 H   0  0  0  0  0  0  0  0  0  0  0  0
    3.5843   -1.3901    0.0000 H   0  0  0  0  0  0  0  0  0  0  0  0
    2.2636   -2.2587    0.0000 C   0  0  0  0  0  0  0  0  0  0  0  0
    2.6761   -2.9732    0.0000 H   0  0  0  0  0  0  0  0  0  0  0  0
    3.0389   -2.5409    0.0000 H   0  0  0  0  0  0  0  0  0  0  0  0
    1.7333   -2.8907    0.0000 H   0  0  0  0  0  0  0  0  0  0  0  0
    0.2516   -1.7917    0.0000 H   0  0  0  0  0  0  0  0  0  0  0  0
   -0.7041   -2.4609    0.0000 H   0  0  0  0  0  0  0  0  0  0  0  0
   -0.0349   -3.4166    0.0000 H   0  0  0  0  0  0  0  0  0  0  0  0
  1  2  1  0  0  0  0
  2  3  1  0  0  0  0
  3  4  1  0  0  0  0
  4  5  1  0  0  0  0
  5  6  1  0  0  0  0
  4  7  1  0  0  0  0
  4  8  1  0  0  0  0
  3  9  1  0  0  0  0
  3 10  1  0  0  0  0
  2 11  1  0  0  0  0
 11 12  1  0  0  0  0
 12 13  1  0  0  0  0
 12 14  1  0  0  0  0
 12 15  1  0  0  0  0
 15 16  1  0  0  0  0
 15 17  1  0  0  0  0
 15 18  1  0  0  0  0
 18 19  1  0  0  0  0
 19 20  2  0  0  0  0
 19 21  1  0  0  0  0
 21 22  1  0  0  0  0
 22 23  1  0  0  0  0
 23 24  2  0  0  0  0
 23 25  1  0  0  0  0
 25 26  1  0  0  0  0
 26 27  2  0  0  0  0
 27 28  1  0  0  0  0
 27 29  1  0  0  0  0
 29 30  2  0  0  0  0
 30 31  1  0  0  0  0
 30 32  1  0  0  0  0
 32 33  2  0  0  0  0
 33 34  1  0  0  0  0
 34 35  2  0  0  0  0
 35 36  1  0  0  0  0
 36 37  1  0  0  0  0
 36 38  2  0  0  0  0
 26 38  1  0  0  0  0
 32 38  1  0  0  0  0
 35 39  1  0  0  0  0
 34 40  1  0  0  0  0
 33 41  1  0  0  0  0
 25 42  1  0  0  0  0
 22 43  1  0  0  0  0
 43 44  1  0  0  0  0
 43 45  1  0  0  0  0
 43 46  1  0  0  0  0
 46 47  1  0  0  0  0
 46 48  1  0  0  0  0
 46 49  1  0  0  0  0
 49 50  1  0  0  0  0
 50 51  2  0  0  0  0
 51 52  1  0  0  0  0
 52 53  2  0  0  0  0
 53 54  1  0  0  0  0
 53 55  1  0  0  0  0
 55 56  1  0  0  0  0
 55 57  2  0  0  0  0
 22 57  1  0  0  0  0
 50 57  1  0  0  0  0
 52 58  1  0  0  0  0
 51 59  1  0  0  0  0
 21 60  1  0  0  0  0
 21 61  1  0  0  0  0
 18 62  1  0  0  0  0
 62 63  1  0  0  0  0
 62 64  1  0  0  0  0
 62 65  1  0  0  0  0
 11 65  1  0  0  0  0
 65 66  1  0  0  0  0
 65 67  1  0  0  0  0
 11 68  1  0  0  0  0
  1 69  1  0  0  0  0
  1 70  1  0  0  0  0
  1 71  1  0  0  0  0
M  END
> <Potency>
37.6021301491232

> <pIC50>
4.424787551726443

> <Outcome>
Inactive

> <is_active>
0

$$$$

  Mrv1921 08232120312D          

 65 69  0  0  0  0            999 V2000
   -3.4149    5.1807    0.0000 C   0  0  0  0  0  0  0  0  0  0  0  0
   -2.6048    5.3366    0.0000 N   0  0  0  0  0  0  0  0  0  0  0  0
   -2.3347    6.1162    0.0000 C   0  0  0  0  0  0  0  0  0  0  0  0
   -2.8748    6.7398    0.0000 O   0  0  0  0  0  0  0  0  0  0  0  0
   -1.5246    6.2721    0.0000 C   0  0  0  0  0  0  0  0  0  0  0  0
   -0.9334    6.8475    0.0000 H   0  0  0  0  0  0  0  0  0  0  0  0
   -1.6331    7.0899    0.0000 H   0  0  0  0  0  0  0  0  0  0  0  0
   -0.9845    5.6484    0.0000 C   0  0  0  0  0  0  0  0  0  0  0  0
   -0.1906    5.4242    0.0000 H   0  0  0  0  0  0  0  0  0  0  0  0
   -0.3305    6.1514    0.0000 H   0  0  0  0  0  0  0  0  0  0  0  0
   -1.2546    4.8689    0.0000 C   0  0  0  0  0  0  0  0  0  0  0  0
   -0.7145    4.2452    0.0000 C   0  0  0  0  0  0  0  0  0  0  0  0
   -0.9845    3.4657    0.0000 C   0  0  0  0  0  0  0  0  0  0  0  0
   -0.4444    2.8421    0.0000 N   0  0  0  0  0  0  0  0  0  0  0  0
   -0.7145    2.0625    0.0000 C   0  0  0  0  0  0  0  0  0  0  0  0
   -0.1744    1.4389    0.0000 O   0  0  0  0  0  0  0  0  0  0  0  0
   -1.5246    1.9066    0.0000 C   0  0  0  0  0  0  0  0  0  0  0  0
   -1.8747    1.1595    0.0000 C   0  0  0  0  0  0  0  0  0  0  0  0
   -1.4760    0.4372    0.0000 H   0  0  0  0  0  0  0  0  0  0  0  0
   -2.6933    1.2616    0.0000 O   0  0  0  0  0  0  0  0  0  0  0  0
   -2.8492    2.0717    0.0000 C   0  0  0  0  0  0  0  0  0  0  0  0
   -3.5963    2.4218    0.0000 H   0  0  0  0  0  0  0  0  0  0  0  0
   -2.1269    2.4704    0.0000 N   0  0  0  0  0  0  0  0  0  0  0  0
    0.3657    2.9980    0.0000 C   0  0  0  0  0  0  0  0  0  0  0  0
    0.9058    2.3743    0.0000 C   0  0  0  0  0  0  0  0  0  0  0  0
    0.6358    1.5948    0.0000 O   0  0  0  0  0  0  0  0  0  0  0  0
    1.7159    2.5302    0.0000 N   0  0  0  0  0  0  0  0  0  0  0  0
    2.2560    1.9066    0.0000 C   0  0  0  0  0  0  0  0  0  0  0  0
    3.0662    2.0625    0.0000 C   0  0  0  0  0  0  0  0  0  0  0  0
    3.6062    1.4389    0.0000 C   0  0  0  0  0  0  0  0  0  0  0  0
    4.4164    1.5948    0.0000 C   0  0  0  0  0  0  0  0  0  0  0  0
    4.6864    2.3743    0.0000 H   0  0  0  0  0  0  0  0  0  0  0  0
    4.9565    0.9711    0.0000 C   0  0  0  0  0  0  0  0  0  0  0  0
    5.7666    1.1270    0.0000 H   0  0  0  0  0  0  0  0  0  0  0  0
    4.6864    0.1916    0.0000 C   0  0  0  0  0  0  0  0  0  0  0  0
    5.2265   -0.4321    0.0000 H   0  0  0  0  0  0  0  0  0  0  0  0
    3.8763    0.0357    0.0000 C   0  0  0  0  0  0  0  0  0  0  0  0
    3.6062   -0.7439    0.0000 F   0  0  0  0  0  0  0  0  0  0  0  0
    3.3362    0.6593    0.0000 C   0  0  0  0  0  0  0  0  0  0  0  0
    2.5261    0.5034    0.0000 H   0  0  0  0  0  0  0  0  0  0  0  0
    3.6573    2.6379    0.0000 H   0  0  0  0  0  0  0  0  0  0  0  0
    2.9576    2.8803    0.0000 H   0  0  0  0  0  0  0  0  0  0  0  0
    1.6648    1.3312    0.0000 H   0  0  0  0  0  0  0  0  0  0  0  0
    2.3646    1.0888    0.0000 H   0  0  0  0  0  0  0  0  0  0  0  0
    1.9860    3.3098    0.0000 H   0  0  0  0  0  0  0  0  0  0  0  0
    0.6358    3.7775    0.0000 C   0  0  0  0  0  0  0  0  0  0  0  0
    0.0957    4.4012    0.0000 C   0  0  0  0  0  0  0  0  0  0  0  0
   -0.1744    3.6216    0.0000 H   0  0  0  0  0  0  0  0  0  0  0  0
    0.3657    5.1807    0.0000 C   0  0  0  0  0  0  0  0  0  0  0  0
    0.4573    6.0006    0.0000 H   0  0  0  0  0  0  0  0  0  0  0  0
    1.1758    5.3366    0.0000 C   0  0  0  0  0  0  0  0  0  0  0  0
    1.4459    6.1162    0.0000 H   0  0  0  0  0  0  0  0  0  0  0  0
    1.7159    4.7130    0.0000 N   0  0  0  0  0  0  0  0  0  0  0  0
    1.4459    3.9334    0.0000 C   0  0  0  0  0  0  0  0  0  0  0  0
    1.1758    3.1539    0.0000 H   0  0  0  0  0  0  0  0  0  0  0  0
    0.0957    2.2184    0.0000 H   0  0  0  0  0  0  0  0  0  0  0  0
   -1.7946    3.3098    0.0000 C   0  0  0  0  0  0  0  0  0  0  0  0
   -2.3347    3.9334    0.0000 C   0  0  0  0  0  0  0  0  0  0  0  0
   -3.1128    4.2077    0.0000 H   0  0  0  0  0  0  0  0  0  0  0  0
   -2.0647    4.7130    0.0000 C   0  0  0  0  0  0  0  0  0  0  0  0
   -2.6080    3.1715    0.0000 H   0  0  0  0  0  0  0  0  0  0  0  0
   -0.4444    5.0248    0.0000 H   0  0  0  0  0  0  0  0  0  0  0  0
   -3.5708    5.9908    0.0000 H   0  0  0  0  0  0  0  0  0  0  0  0
   -4.2251    5.0248    0.0000 H   0  0  0  0  0  0  0  0  0  0  0  0
   -3.2590    4.3706    0.0000 H   0  0  0  0  0  0  0  0  0  0  0  0
  1  2  1  0  0  0  0
  2  3  1  0  0  0  0
  3  4  2  0  0  0  0
  3  5  1  0  0  0  0
  5  6  1  0  0  0  0
  5  7  1  0  0  0  0
  5  8  1  0  0  0  0
  8  9  1  0  0  0  0
  8 10  1  0  0  0  0
  8 11  1  0  0  0  0
 11 12  2  0  0  0  0
 12 13  1  0  0  0  0
 13 14  1  0  0  0  0
 14 15  1  0  0  0  0
 15 16  2  0  0  0  0
 15 17  1  0  0  0  0
 17 18  2  0  0  0  0
 18 19  1  0  0  0  0
 18 20  1  0  0  0  0
 20 21  1  0  0  0  0
 21 22  1  0  0  0  0
 21 23  2  0  0  0  0
 17 23  1  0  0  0  0
 14 24  1  0  0  0  0
 24 25  1  0  0  0  0
 25 26  2  0  0  0  0
 25 27  1  0  0  0  0
 27 28  1  0  0  0  0
 28 29  1  0  0  0  0
 29 30  1  0  0  0  0
 30 31  2  0  0  0  0
 31 32  1  0  0  0  0
 31 33  1  0  0  0  0
 33 34  1  0  0  0  0
 33 35  2  0  0  0  0
 35 36  1  0  0  0  0
 35 37  1  0  0  0  0
 37 38  1  0  0  0  0
 37 39  2  0  0  0  0
 30 39  1  0  0  0  0
 39 40  1  0  0  0  0
 29 41  1  0  0  0  0
 29 42  1  0  0  0  0
 28 43  1  0  0  0  0
 28 44  1  0  0  0  0
 27 45  1  0  0  0  0
 24 46  1  0  0  0  0
 46 47  2  0  0  0  0
 47 48  1  0  0  0  0
 47 49  1  0  0  0  0
 49 50  1  0  0  0  0
 49 51  2  0  0  0  0
 51 52  1  0  0  0  0
 51 53  1  0  0  0  0
 53 54  2  0  0  0  0
 46 54  1  0  0  0  0
 54 55  1  0  0  0  0
 24 56  1  0  0  0  0
 13 57  2  0  0  0  0
 57 58  1  0  0  0  0
 58 59  1  0  0  0  0
 58 60  2  0  0  0  0
  2 60  1  0  0  0  0
 11 60  1  0  0  0  0
 57 61  1  0  0  0  0
 12 62  1  0  0  0  0
  1 63  1  0  0  0  0
  1 64  1  0  0  0  0
  1 65  1  0  0  0  0
M  END
> <Potency>
63.5332089850502

> <pIC50>
4.196999208425109

> <Outcome>
Inactive

> <is_active>
0

$$$$

  Mrv1921 08232120312D          

 66 69  0  0  0  0            999 V2000
   -3.2405    1.2668    0.0000 C   0  0  0  0  0  0  0  0  0  0  0  0
   -2.4304    1.4228    0.0000 C   0  0  0  0  0  0  0  0  0  0  0  0
   -2.1604    2.2023    0.0000 C   0  0  0  0  0  0  0  0  0  0  0  0
   -1.4773    1.7397    0.0000 H   0  0  0  0  0  0  0  0  0  0  0  0
   -1.5367    2.7424    0.0000 H   0  0  0  0  0  0  0  0  0  0  0  0
   -2.5206    2.9445    0.0000 H   0  0  0  0  0  0  0  0  0  0  0  0
   -1.8903    0.7991    0.0000 S   0  0  0  0  0  0  0  0  0  0  0  0
   -2.5140    0.2590    0.0000 O   0  0  0  0  0  0  0  0  0  0  0  0
   -1.2667    1.3392    0.0000 O   0  0  0  0  0  0  0  0  0  0  0  0
   -1.3502    0.1755    0.0000 C   0  0  0  0  0  0  0  0  0  0  0  0
   -0.5401    0.3314    0.0000 C   0  0  0  0  0  0  0  0  0  0  0  0
   -0.2700    1.1109    0.0000 H   0  0  0  0  0  0  0  0  0  0  0  0
    0.0000   -0.2923    0.0000 C   0  0  0  0  0  0  0  0  0  0  0  0
    0.5401   -0.9159    0.0000 H   0  0  0  0  0  0  0  0  0  0  0  0
   -0.2700   -1.0718    0.0000 C   0  0  0  0  0  0  0  0  0  0  0  0
    0.2700   -1.6954    0.0000 N   0  0  0  0  0  0  0  0  0  0  0  0
    0.0000   -2.4750    0.0000 C   0  0  0  0  0  0  0  0  0  0  0  0
    0.5401   -3.0986    0.0000 O   0  0  0  0  0  0  0  0  0  0  0  0
   -0.8101   -2.6309    0.0000 C   0  0  0  0  0  0  0  0  0  0  0  0
   -1.1602   -3.3780    0.0000 C   0  0  0  0  0  0  0  0  0  0  0  0
   -0.7616   -4.1003    0.0000 H   0  0  0  0  0  0  0  0  0  0  0  0
   -1.9788   -3.2759    0.0000 O   0  0  0  0  0  0  0  0  0  0  0  0
   -2.1348   -2.4658    0.0000 C   0  0  0  0  0  0  0  0  0  0  0  0
   -2.8818   -2.1157    0.0000 H   0  0  0  0  0  0  0  0  0  0  0  0
   -1.4125   -2.0671    0.0000 N   0  0  0  0  0  0  0  0  0  0  0  0
    1.0802   -1.5395    0.0000 C   0  0  0  0  0  0  0  0  0  0  0  0
    1.6203   -2.1632    0.0000 C   0  0  0  0  0  0  0  0  0  0  0  0
    1.3502   -2.9427    0.0000 O   0  0  0  0  0  0  0  0  0  0  0  0
    2.4304   -2.0073    0.0000 N   0  0  0  0  0  0  0  0  0  0  0  0
    2.9705   -2.6309    0.0000 C   0  0  0  0  0  0  0  0  0  0  0  0
    3.7806   -2.4750    0.0000 C   0  0  0  0  0  0  0  0  0  0  0  0
    4.3207   -3.0986    0.0000 C   0  0  0  0  0  0  0  0  0  0  0  0
    5.1308   -2.9427    0.0000 C   0  0  0  0  0  0  0  0  0  0  0  0
    5.4009   -2.1632    0.0000 H   0  0  0  0  0  0  0  0  0  0  0  0
    5.6709   -3.5664    0.0000 C   0  0  0  0  0  0  0  0  0  0  0  0
    6.4811   -3.4105    0.0000 H   0  0  0  0  0  0  0  0  0  0  0  0
    5.4009   -4.3459    0.0000 C   0  0  0  0  0  0  0  0  0  0  0  0
    5.9410   -4.9696    0.0000 H   0  0  0  0  0  0  0  0  0  0  0  0
    4.5908   -4.5018    0.0000 C   0  0  0  0  0  0  0  0  0  0  0  0
    4.3207   -5.2814    0.0000 F   0  0  0  0  0  0  0  0  0  0  0  0
    4.0507   -3.8782    0.0000 C   0  0  0  0  0  0  0  0  0  0  0  0
    3.2405   -4.0341    0.0000 H   0  0  0  0  0  0  0  0  0  0  0  0
    4.3718   -1.8996    0.0000 H   0  0  0  0  0  0  0  0  0  0  0  0
    3.6721   -1.6572    0.0000 H   0  0  0  0  0  0  0  0  0  0  0  0
    2.3793   -3.2063    0.0000 H   0  0  0  0  0  0  0  0  0  0  0  0
    3.0790   -3.4487    0.0000 H   0  0  0  0  0  0  0  0  0  0  0  0
    2.7004   -1.2277    0.0000 H   0  0  0  0  0  0  0  0  0  0  0  0
    1.3502   -0.7600    0.0000 C   0  0  0  0  0  0  0  0  0  0  0  0
    0.8101   -0.1363    0.0000 C   0  0  0  0  0  0  0  0  0  0  0  0
    0.2700    0.4873    0.0000 H   0  0  0  0  0  0  0  0  0  0  0  0
    1.0802    0.6432    0.0000 C   0  0  0  0  0  0  0  0  0  0  0  0
    0.9243    1.4533    0.0000 H   0  0  0  0  0  0  0  0  0  0  0  0
    1.8903    0.7991    0.0000 C   0  0  0  0  0  0  0  0  0  0  0  0
    2.1604    1.5787    0.0000 H   0  0  0  0  0  0  0  0  0  0  0  0
    2.4304    0.1755    0.0000 N   0  0  0  0  0  0  0  0  0  0  0  0
    2.1604   -0.6041    0.0000 C   0  0  0  0  0  0  0  0  0  0  0  0
    1.8903   -1.3836    0.0000 H   0  0  0  0  0  0  0  0  0  0  0  0
    0.8101   -2.3191    0.0000 H   0  0  0  0  0  0  0  0  0  0  0  0
   -1.0802   -1.2277    0.0000 C   0  0  0  0  0  0  0  0  0  0  0  0
   -1.8935   -1.3660    0.0000 H   0  0  0  0  0  0  0  0  0  0  0  0
   -1.6203   -0.6041    0.0000 C   0  0  0  0  0  0  0  0  0  0  0  0
   -2.3983   -0.3298    0.0000 H   0  0  0  0  0  0  0  0  0  0  0  0
   -2.9705    2.0464    0.0000 H   0  0  0  0  0  0  0  0  0  0  0  0
   -3.3964    2.0770    0.0000 H   0  0  0  0  0  0  0  0  0  0  0  0
   -4.0507    1.1109    0.0000 H   0  0  0  0  0  0  0  0  0  0  0  0
   -3.0846    0.4567    0.0000 H   0  0  0  0  0  0  0  0  0  0  0  0
  1  2  1  0  0  0  0
  2  3  1  0  0  0  0
  3  4  1  0  0  0  0
  3  5  1  0  0  0  0
  3  6  1  0  0  0  0
  2  7  1  0  0  0  0
  7  8  2  0  0  0  0
  7  9  2  0  0  0  0
  7 10  1  0  0  0  0
 10 11  2  0  0  0  0
 11 12  1  0  0  0  0
 11 13  1  0  0  0  0
 13 14  1  0  0  0  0
 13 15  2  0  0  0  0
 15 16  1  0  0  0  0
 16 17  1  0  0  0  0
 17 18  2  0  0  0  0
 17 19  1  0  0  0  0
 19 20  2  0  0  0  0
 20 21  1  0  0  0  0
 20 22  1  0  0  0  0
 22 23  1  0  0  0  0
 23 24  1  0  0  0  0
 23 25  2  0  0  0  0
 19 25  1  0  0  0  0
 16 26  1  0  0  0  0
 26 27  1  0  0  0  0
 27 28  2  0  0  0  0
 27 29  1  0  0  0  0
 29 30  1  0  0  0  0
 30 31  1  0  0  0  0
 31 32  1  0  0  0  0
 32 33  2  0  0  0  0
 33 34  1  0  0  0  0
 33 35  1  0  0  0  0
 35 36  1  0  0  0  0
 35 37  2  0  0  0  0
 37 38  1  0  0  0  0
 37 39  1  0  0  0  0
 39 40  1  0  0  0  0
 39 41  2  0  0  0  0
 32 41  1  0  0  0  0
 41 42  1  0  0  0  0
 31 43  1  0  0  0  0
 31 44  1  0  0  0  0
 30 45  1  0  0  0  0
 30 46  1  0  0  0  0
 29 47  1  0  0  0  0
 26 48  1  0  0  0  0
 48 49  2  0  0  0  0
 49 50  1  0  0  0  0
 49 51  1  0  0  0  0
 51 52  1  0  0  0  0
 51 53  2  0  0  0  0
 53 54  1  0  0  0  0
 53 55  1  0  0  0  0
 55 56  2  0  0  0  0
 48 56  1  0  0  0  0
 56 57  1  0  0  0  0
 26 58  1  0  0  0  0
 15 59  1  0  0  0  0
 59 60  1  0  0  0  0
 59 61  2  0  0  0  0
 10 61  1  0  0  0  0
 61 62  1  0  0  0  0
  2 63  1  0  0  0  0
  1 64  1  0  0  0  0
  1 65  1  0  0  0  0
  1 66  1  0  0  0  0
M  END
> <Potency>
66.1095484714624

> <pIC50>
4.179735809062329

> <Outcome>
Inactive

> <is_active>
0

$$$$

  Mrv1921 08232120312D          

 60 64  0  0  0  0            999 V2000
   -3.2820    5.5373    0.0000 C   0  0  0  0  0  0  0  0  0  0  0  0
   -2.4633    5.4353    0.0000 N   0  0  0  0  0  0  0  0  0  0  0  0
   -1.8995    6.0376    0.0000 N   0  0  0  0  0  0  0  0  0  0  0  0
   -1.1525    5.6875    0.0000 C   0  0  0  0  0  0  0  0  0  0  0  0
   -0.4302    6.0862    0.0000 H   0  0  0  0  0  0  0  0  0  0  0  0
   -1.2546    4.8689    0.0000 C   0  0  0  0  0  0  0  0  0  0  0  0
   -0.7145    4.2452    0.0000 C   0  0  0  0  0  0  0  0  0  0  0  0
   -0.9845    3.4657    0.0000 C   0  0  0  0  0  0  0  0  0  0  0  0
   -0.4444    2.8421    0.0000 N   0  0  0  0  0  0  0  0  0  0  0  0
   -0.7145    2.0625    0.0000 C   0  0  0  0  0  0  0  0  0  0  0  0
   -0.1744    1.4389    0.0000 O   0  0  0  0  0  0  0  0  0  0  0  0
   -1.5246    1.9066    0.0000 C   0  0  0  0  0  0  0  0  0  0  0  0
   -1.8747    1.1595    0.0000 C   0  0  0  0  0  0  0  0  0  0  0  0
   -1.4760    0.4372    0.0000 H   0  0  0  0  0  0  0  0  0  0  0  0
   -2.6933    1.2616    0.0000 O   0  0  0  0  0  0  0  0  0  0  0  0
   -2.8492    2.0717    0.0000 C   0  0  0  0  0  0  0  0  0  0  0  0
   -3.5963    2.4218    0.0000 H   0  0  0  0  0  0  0  0  0  0  0  0
   -2.1269    2.4704    0.0000 N   0  0  0  0  0  0  0  0  0  0  0  0
    0.3657    2.9980    0.0000 C   0  0  0  0  0  0  0  0  0  0  0  0
    0.9058    2.3743    0.0000 C   0  0  0  0  0  0  0  0  0  0  0  0
    0.6358    1.5948    0.0000 O   0  0  0  0  0  0  0  0  0  0  0  0
    1.7159    2.5302    0.0000 N   0  0  0  0  0  0  0  0  0  0  0  0
    2.2560    1.9066    0.0000 C   0  0  0  0  0  0  0  0  0  0  0  0
    3.0662    2.0625    0.0000 C   0  0  0  0  0  0  0  0  0  0  0  0
    3.6062    1.4389    0.0000 C   0  0  0  0  0  0  0  0  0  0  0  0
    4.4164    1.5948    0.0000 C   0  0  0  0  0  0  0  0  0  0  0  0
    4.6864    2.3743    0.0000 H   0  0  0  0  0  0  0  0  0  0  0  0
    4.9565    0.9711    0.0000 C   0  0  0  0  0  0  0  0  0  0  0  0
    5.7666    1.1270    0.0000 H   0  0  0  0  0  0  0  0  0  0  0  0
    4.6864    0.1916    0.0000 C   0  0  0  0  0  0  0  0  0  0  0  0
    5.2265   -0.4321    0.0000 H   0  0  0  0  0  0  0  0  0  0  0  0
    3.8763    0.0357    0.0000 C   0  0  0  0  0  0  0  0  0  0  0  0
    3.6062   -0.7439    0.0000 F   0  0  0  0  0  0  0  0  0  0  0  0
    3.3362    0.6593    0.0000 C   0  0  0  0  0  0  0  0  0  0  0  0
    2.5261    0.5034    0.0000 H   0  0  0  0  0  0  0  0  0  0  0  0
    3.6573    2.6379    0.0000 H   0  0  0  0  0  0  0  0  0  0  0  0
    2.9576    2.8803    0.0000 H   0  0  0  0  0  0  0  0  0  0  0  0
    1.6648    1.3312    0.0000 H   0  0  0  0  0  0  0  0  0  0  0  0
    2.3646    1.0888    0.0000 H   0  0  0  0  0  0  0  0  0  0  0  0
    1.9860    3.3098    0.0000 H   0  0  0  0  0  0  0  0  0  0  0  0
    0.6358    3.7775    0.0000 C   0  0  0  0  0  0  0  0  0  0  0  0
    0.0957    4.4012    0.0000 C   0  0  0  0  0  0  0  0  0  0  0  0
   -0.1744    3.6216    0.0000 H   0  0  0  0  0  0  0  0  0  0  0  0
    0.3657    5.1807    0.0000 C   0  0  0  0  0  0  0  0  0  0  0  0
    0.2098    5.9908    0.0000 H   0  0  0  0  0  0  0  0  0  0  0  0
    1.1758    5.3366    0.0000 C   0  0  0  0  0  0  0  0  0  0  0  0
    1.4459    6.1162    0.0000 H   0  0  0  0  0  0  0  0  0  0  0  0
    1.7159    4.7130    0.0000 N   0  0  0  0  0  0  0  0  0  0  0  0
    1.4459    3.9334    0.0000 C   0  0  0  0  0  0  0  0  0  0  0  0
    1.1758    3.1539    0.0000 H   0  0  0  0  0  0  0  0  0  0  0  0
    0.0957    2.2184    0.0000 H   0  0  0  0  0  0  0  0  0  0  0  0
   -1.7946    3.3098    0.0000 C   0  0  0  0  0  0  0  0  0  0  0  0
   -2.3347    3.9334    0.0000 C   0  0  0  0  0  0  0  0  0  0  0  0
   -3.1128    4.2077    0.0000 H   0  0  0  0  0  0  0  0  0  0  0  0
   -2.0647    4.7130    0.0000 C   0  0  0  0  0  0  0  0  0  0  0  0
   -2.6080    3.1715    0.0000 H   0  0  0  0  0  0  0  0  0  0  0  0
   -0.4444    5.0248    0.0000 H   0  0  0  0  0  0  0  0  0  0  0  0
   -3.1799    6.3560    0.0000 H   0  0  0  0  0  0  0  0  0  0  0  0
   -4.1006    5.6394    0.0000 H   0  0  0  0  0  0  0  0  0  0  0  0
   -3.3840    4.7187    0.0000 H   0  0  0  0  0  0  0  0  0  0  0  0
  1  2  1  0  0  0  0
  2  3  1  0  0  0  0
  3  4  2  0  0  0  0
  4  5  1  0  0  0  0
  4  6  1  0  0  0  0
  6  7  2  0  0  0  0
  7  8  1  0  0  0  0
  8  9  1  0  0  0  0
  9 10  1  0  0  0  0
 10 11  2  0  0  0  0
 10 12  1  0  0  0  0
 12 13  2  0  0  0  0
 13 14  1  0  0  0  0
 13 15  1  0  0  0  0
 15 16  1  0  0  0  0
 16 17  1  0  0  0  0
 16 18  2  0  0  0  0
 12 18  1  0  0  0  0
  9 19  1  0  0  0  0
 19 20  1  0  0  0  0
 20 21  2  0  0  0  0
 20 22  1  0  0  0  0
 22 23  1  0  0  0  0
 23 24  1  0  0  0  0
 24 25  1  0  0  0  0
 25 26  2  0  0  0  0
 26 27  1  0  0  0  0
 26 28  1  0  0  0  0
 28 29  1  0  0  0  0
 28 30  2  0  0  0  0
 30 31  1  0  0  0  0
 30 32  1  0  0  0  0
 32 33  1  0  0  0  0
 32 34  2  0  0  0  0
 25 34  1  0  0  0  0
 34 35  1  0  0  0  0
 24 36  1  0  0  0  0
 24 37  1  0  0  0  0
 23 38  1  0  0  0  0
 23 39  1  0  0  0  0
 22 40  1  0  0  0  0
 19 41  1  0  0  0  0
 41 42  2  0  0  0  0
 42 43  1  0  0  0  0
 42 44  1  0  0  0  0
 44 45  1  0  0  0  0
 44 46  2  0  0  0  0
 46 47  1  0  0  0  0
 46 48  1  0  0  0  0
 48 49  2  0  0  0  0
 41 49  1  0  0  0  0
 49 50  1  0  0  0  0
 19 51  1  0  0  0  0
  8 52  2  0  0  0  0
 52 53  1  0  0  0  0
 53 54  1  0  0  0  0
 53 55  2  0  0  0  0
  2 55  1  0  0  0  0
  6 55  1  0  0  0  0
 52 56  1  0  0  0  0
  7 57  1  0  0  0  0
  1 58  1  0  0  0  0
  1 59  1  0  0  0  0
  1 60  1  0  0  0  0
M  END
> <Potency>
48.0239731921095

> <pIC50>
4.318541912083512

> <Outcome>
Inactive

> <is_active>
0

$$$$

  Mrv1921 08232120312D          

 60 63  0  0  0  0            999 V2000
   -2.4304    1.4228    0.0000 C   0  0  0  0  0  0  0  0  0  0  0  0
   -1.8903    0.7991    0.0000 S   0  0  0  0  0  0  0  0  0  0  0  0
   -2.5140    0.2590    0.0000 O   0  0  0  0  0  0  0  0  0  0  0  0
   -1.2667    1.3392    0.0000 O   0  0  0  0  0  0  0  0  0  0  0  0
   -1.3502    0.1755    0.0000 C   0  0  0  0  0  0  0  0  0  0  0  0
   -0.5401    0.3314    0.0000 C   0  0  0  0  0  0  0  0  0  0  0  0
   -0.2700    1.1109    0.0000 H   0  0  0  0  0  0  0  0  0  0  0  0
    0.0000   -0.2923    0.0000 C   0  0  0  0  0  0  0  0  0  0  0  0
    0.5401   -0.9159    0.0000 H   0  0  0  0  0  0  0  0  0  0  0  0
   -0.2700   -1.0718    0.0000 C   0  0  0  0  0  0  0  0  0  0  0  0
    0.2700   -1.6954    0.0000 N   0  0  0  0  0  0  0  0  0  0  0  0
    0.0000   -2.4750    0.0000 C   0  0  0  0  0  0  0  0  0  0  0  0
    0.5401   -3.0986    0.0000 O   0  0  0  0  0  0  0  0  0  0  0  0
   -0.8101   -2.6309    0.0000 C   0  0  0  0  0  0  0  0  0  0  0  0
   -1.1602   -3.3780    0.0000 C   0  0  0  0  0  0  0  0  0  0  0  0
   -0.7616   -4.1003    0.0000 H   0  0  0  0  0  0  0  0  0  0  0  0
   -1.9788   -3.2759    0.0000 O   0  0  0  0  0  0  0  0  0  0  0  0
   -2.1348   -2.4658    0.0000 C   0  0  0  0  0  0  0  0  0  0  0  0
   -2.8818   -2.1157    0.0000 H   0  0  0  0  0  0  0  0  0  0  0  0
   -1.4125   -2.0671    0.0000 N   0  0  0  0  0  0  0  0  0  0  0  0
    1.0802   -1.5395    0.0000 C   0  0  0  0  0  0  0  0  0  0  0  0
    1.6203   -2.1632    0.0000 C   0  0  0  0  0  0  0  0  0  0  0  0
    1.3502   -2.9427    0.0000 O   0  0  0  0  0  0  0  0  0  0  0  0
    2.4304   -2.0073    0.0000 N   0  0  0  0  0  0  0  0  0  0  0  0
    2.9705   -2.6309    0.0000 C   0  0  0  0  0  0  0  0  0  0  0  0
    3.7806   -2.4750    0.0000 C   0  0  0  0  0  0  0  0  0  0  0  0
    4.3207   -3.0986    0.0000 C   0  0  0  0  0  0  0  0  0  0  0  0
    5.1308   -2.9427    0.0000 C   0  0  0  0  0  0  0  0  0  0  0  0
    5.4009   -2.1632    0.0000 H   0  0  0  0  0  0  0  0  0  0  0  0
    5.6709   -3.5664    0.0000 C   0  0  0  0  0  0  0  0  0  0  0  0
    6.4811   -3.4105    0.0000 H   0  0  0  0  0  0  0  0  0  0  0  0
    5.4009   -4.3459    0.0000 C   0  0  0  0  0  0  0  0  0  0  0  0
    5.9410   -4.9696    0.0000 H   0  0  0  0  0  0  0  0  0  0  0  0
    4.5908   -4.5018    0.0000 C   0  0  0  0  0  0  0  0  0  0  0  0
    4.3207   -5.2814    0.0000 F   0  0  0  0  0  0  0  0  0  0  0  0
    4.0507   -3.8782    0.0000 C   0  0  0  0  0  0  0  0  0  0  0  0
    3.2405   -4.0341    0.0000 H   0  0  0  0  0  0  0  0  0  0  0  0
    4.3718   -1.8996    0.0000 H   0  0  0  0  0  0  0  0  0  0  0  0
    3.6721   -1.6572    0.0000 H   0  0  0  0  0  0  0  0  0  0  0  0
    2.3793   -3.2063    0.0000 H   0  0  0  0  0  0  0  0  0  0  0  0
    3.0790   -3.4487    0.0000 H   0  0  0  0  0  0  0  0  0  0  0  0
    2.7004   -1.2277    0.0000 H   0  0  0  0  0  0  0  0  0  0  0  0
    1.3502   -0.7600    0.0000 C   0  0  0  0  0  0  0  0  0  0  0  0
    0.8101   -0.1363    0.0000 C   0  0  0  0  0  0  0  0  0  0  0  0
    0.2700    0.4873    0.0000 H   0  0  0  0  0  0  0  0  0  0  0  0
    1.0802    0.6432    0.0000 C   0  0  0  0  0  0  0  0  0  0  0  0
    0.9243    1.4533    0.0000 H   0  0  0  0  0  0  0  0  0  0  0  0
    1.8903    0.7991    0.0000 C   0  0  0  0  0  0  0  0  0  0  0  0
    2.1604    1.5787    0.0000 H   0  0  0  0  0  0  0  0  0  0  0  0
    2.4304    0.1755    0.0000 N   0  0  0  0  0  0  0  0  0  0  0  0
    2.1604   -0.6041    0.0000 C   0  0  0  0  0  0  0  0  0  0  0  0
    1.8903   -1.3836    0.0000 H   0  0  0  0  0  0  0  0  0  0  0  0
    0.8101   -2.3191    0.0000 H   0  0  0  0  0  0  0  0  0  0  0  0
   -1.0802   -1.2277    0.0000 C   0  0  0  0  0  0  0  0  0  0  0  0
   -1.8935   -1.3660    0.0000 H   0  0  0  0  0  0  0  0  0  0  0  0
   -1.6203   -0.6041    0.0000 C   0  0  0  0  0  0  0  0  0  0  0  0
   -2.3983   -0.3298    0.0000 H   0  0  0  0  0  0  0  0  0  0  0  0
   -1.8068    1.9628    0.0000 H   0  0  0  0  0  0  0  0  0  0  0  0
   -2.9705    2.0464    0.0000 H   0  0  0  0  0  0  0  0  0  0  0  0
   -3.0540    0.8827    0.0000 H   0  0  0  0  0  0  0  0  0  0  0  0
  1  2  1  0  0  0  0
  2  3  2  0  0  0  0
  2  4  2  0  0  0  0
  2  5  1  0  0  0  0
  5  6  2  0  0  0  0
  6  7  1  0  0  0  0
  6  8  1  0  0  0  0
  8  9  1  0  0  0  0
  8 10  2  0  0  0  0
 10 11  1  0  0  0  0
 11 12  1  0  0  0  0
 12 13  2  0  0  0  0
 12 14  1  0  0  0  0
 14 15  2  0  0  0  0
 15 16  1  0  0  0  0
 15 17  1  0  0  0  0
 17 18  1  0  0  0  0
 18 19  1  0  0  0  0
 18 20  2  0  0  0  0
 14 20  1  0  0  0  0
 11 21  1  0  0  0  0
 21 22  1  0  0  0  0
 22 23  2  0  0  0  0
 22 24  1  0  0  0  0
 24 25  1  0  0  0  0
 25 26  1  0  0  0  0
 26 27  1  0  0  0  0
 27 28  2  0  0  0  0
 28 29  1  0  0  0  0
 28 30  1  0  0  0  0
 30 31  1  0  0  0  0
 30 32  2  0  0  0  0
 32 33  1  0  0  0  0
 32 34  1  0  0  0  0
 34 35  1  0  0  0  0
 34 36  2  0  0  0  0
 27 36  1  0  0  0  0
 36 37  1  0  0  0  0
 26 38  1  0  0  0  0
 26 39  1  0  0  0  0
 25 40  1  0  0  0  0
 25 41  1  0  0  0  0
 24 42  1  0  0  0  0
 21 43  1  0  0  0  0
 43 44  2  0  0  0  0
 44 45  1  0  0  0  0
 44 46  1  0  0  0  0
 46 47  1  0  0  0  0
 46 48  2  0  0  0  0
 48 49  1  0  0  0  0
 48 50  1  0  0  0  0
 50 51  2  0  0  0  0
 43 51  1  0  0  0  0
 51 52  1  0  0  0  0
 21 53  1  0  0  0  0
 10 54  1  0  0  0  0
 54 55  1  0  0  0  0
 54 56  2  0  0  0  0
  5 56  1  0  0  0  0
 56 57  1  0  0  0  0
  1 58  1  0  0  0  0
  1 59  1  0  0  0  0
  1 60  1  0  0  0  0
M  END
> <Potency>
75.9031200777507

> <pIC50>
4.119740371605181

> <Outcome>
Inactive

> <is_active>
0

$$$$

  Mrv1921 08232120312D          

 63 66  0  0  0  0            999 V2000
   -3.5106    0.4873    0.0000 C   0  0  0  0  0  0  0  0  0  0  0  0
   -2.7004    0.6432    0.0000 S   0  0  0  0  0  0  0  0  0  0  0  0
   -2.5445   -0.1669    0.0000 O   0  0  0  0  0  0  0  0  0  0  0  0
   -2.8564    1.4533    0.0000 O   0  0  0  0  0  0  0  0  0  0  0  0
   -1.8903    0.7991    0.0000 C   0  0  0  0  0  0  0  0  0  0  0  0
   -1.3502    0.1755    0.0000 C   0  0  0  0  0  0  0  0  0  0  0  0
   -0.5401    0.3314    0.0000 C   0  0  0  0  0  0  0  0  0  0  0  0
   -0.2700    1.1109    0.0000 H   0  0  0  0  0  0  0  0  0  0  0  0
    0.0000   -0.2923    0.0000 C   0  0  0  0  0  0  0  0  0  0  0  0
    0.5401   -0.9159    0.0000 H   0  0  0  0  0  0  0  0  0  0  0  0
   -0.2700   -1.0718    0.0000 C   0  0  0  0  0  0  0  0  0  0  0  0
    0.2700   -1.6954    0.0000 N   0  0  0  0  0  0  0  0  0  0  0  0
    0.0000   -2.4750    0.0000 C   0  0  0  0  0  0  0  0  0  0  0  0
    0.5401   -3.0986    0.0000 O   0  0  0  0  0  0  0  0  0  0  0  0
   -0.8101   -2.6309    0.0000 C   0  0  0  0  0  0  0  0  0  0  0  0
   -1.1602   -3.3780    0.0000 C   0  0  0  0  0  0  0  0  0  0  0  0
   -0.7616   -4.1003    0.0000 H   0  0  0  0  0  0  0  0  0  0  0  0
   -1.9788   -3.2759    0.0000 O   0  0  0  0  0  0  0  0  0  0  0  0
   -2.1348   -2.4658    0.0000 C   0  0  0  0  0  0  0  0  0  0  0  0
   -2.8818   -2.1157    0.0000 H   0  0  0  0  0  0  0  0  0  0  0  0
   -1.4125   -2.0671    0.0000 N   0  0  0  0  0  0  0  0  0  0  0  0
    1.0802   -1.5395    0.0000 C   0  0  0  0  0  0  0  0  0  0  0  0
    1.6203   -2.1632    0.0000 C   0  0  0  0  0  0  0  0  0  0  0  0
    1.3502   -2.9427    0.0000 O   0  0  0  0  0  0  0  0  0  0  0  0
    2.4304   -2.0073    0.0000 N   0  0  0  0  0  0  0  0  0  0  0  0
    2.9705   -2.6309    0.0000 C   0  0  0  0  0  0  0  0  0  0  0  0
    3.7806   -2.4750    0.0000 C   0  0  0  0  0  0  0  0  0  0  0  0
    4.3207   -3.0986    0.0000 C   0  0  0  0  0  0  0  0  0  0  0  0
    5.1308   -2.9427    0.0000 C   0  0  0  0  0  0  0  0  0  0  0  0
    5.4009   -2.1632    0.0000 H   0  0  0  0  0  0  0  0  0  0  0  0
    5.6709   -3.5664    0.0000 C   0  0  0  0  0  0  0  0  0  0  0  0
    6.4811   -3.4105    0.0000 H   0  0  0  0  0  0  0  0  0  0  0  0
    5.4009   -4.3459    0.0000 C   0  0  0  0  0  0  0  0  0  0  0  0
    5.9410   -4.9696    0.0000 H   0  0  0  0  0  0  0  0  0  0  0  0
    4.5908   -4.5018    0.0000 C   0  0  0  0  0  0  0  0  0  0  0  0
    4.3207   -5.2814    0.0000 F   0  0  0  0  0  0  0  0  0  0  0  0
    4.0507   -3.8782    0.0000 C   0  0  0  0  0  0  0  0  0  0  0  0
    3.2405   -4.0341    0.0000 H   0  0  0  0  0  0  0  0  0  0  0  0
    4.3718   -1.8996    0.0000 H   0  0  0  0  0  0  0  0  0  0  0  0
    3.6721   -1.6572    0.0000 H   0  0  0  0  0  0  0  0  0  0  0  0
    2.3793   -3.2063    0.0000 H   0  0  0  0  0  0  0  0  0  0  0  0
    3.0790   -3.4487    0.0000 H   0  0  0  0  0  0  0  0  0  0  0  0
    2.7004   -1.2277    0.0000 H   0  0  0  0  0  0  0  0  0  0  0  0
    1.3502   -0.7600    0.0000 C   0  0  0  0  0  0  0  0  0  0  0  0
    0.8101   -0.1363    0.0000 C   0  0  0  0  0  0  0  0  0  0  0  0
    0.2700    0.4873    0.0000 H   0  0  0  0  0  0  0  0  0  0  0  0
    1.0802    0.6432    0.0000 C   0  0  0  0  0  0  0  0  0  0  0  0
    0.9243    1.4533    0.0000 H   0  0  0  0  0  0  0  0  0  0  0  0
    1.8903    0.7991    0.0000 C   0  0  0  0  0  0  0  0  0  0  0  0
    2.1604    1.5787    0.0000 H   0  0  0  0  0  0  0  0  0  0  0  0
    2.4304    0.1755    0.0000 N   0  0  0  0  0  0  0  0  0  0  0  0
    2.1604   -0.6041    0.0000 C   0  0  0  0  0  0  0  0  0  0  0  0
    1.8903   -1.3836    0.0000 H   0  0  0  0  0  0  0  0  0  0  0  0
    0.8101   -2.3191    0.0000 H   0  0  0  0  0  0  0  0  0  0  0  0
   -1.0802   -1.2277    0.0000 C   0  0  0  0  0  0  0  0  0  0  0  0
   -1.8935   -1.3660    0.0000 H   0  0  0  0  0  0  0  0  0  0  0  0
   -1.6203   -0.6041    0.0000 C   0  0  0  0  0  0  0  0  0  0  0  0
   -2.3983   -0.3298    0.0000 H   0  0  0  0  0  0  0  0  0  0  0  0
   -1.2991    1.3746    0.0000 H   0  0  0  0  0  0  0  0  0  0  0  0
   -1.9989    1.6169    0.0000 H   0  0  0  0  0  0  0  0  0  0  0  0
   -3.6665    1.2974    0.0000 H   0  0  0  0  0  0  0  0  0  0  0  0
   -4.3207    0.3314    0.0000 H   0  0  0  0  0  0  0  0  0  0  0  0
   -3.3547   -0.3228    0.0000 H   0  0  0  0  0  0  0  0  0  0  0  0
  1  2  1  0  0  0  0
  2  3  2  0  0  0  0
  2  4  2  0  0  0  0
  2  5  1  0  0  0  0
  5  6  1  0  0  0  0
  6  7  2  0  0  0  0
  7  8  1  0  0  0  0
  7  9  1  0  0  0  0
  9 10  1  0  0  0  0
  9 11  2  0  0  0  0
 11 12  1  0  0  0  0
 12 13  1  0  0  0  0
 13 14  2  0  0  0  0
 13 15  1  0  0  0  0
 15 16  2  0  0  0  0
 16 17  1  0  0  0  0
 16 18  1  0  0  0  0
 18 19  1  0  0  0  0
 19 20  1  0  0  0  0
 19 21  2  0  0  0  0
 15 21  1  0  0  0  0
 12 22  1  0  0  0  0
 22 23  1  0  0  0  0
 23 24  2  0  0  0  0
 23 25  1  0  0  0  0
 25 26  1  0  0  0  0
 26 27  1  0  0  0  0
 27 28  1  0  0  0  0
 28 29  2  0  0  0  0
 29 30  1  0  0  0  0
 29 31  1  0  0  0  0
 31 32  1  0  0  0  0
 31 33  2  0  0  0  0
 33 34  1  0  0  0  0
 33 35  1  0  0  0  0
 35 36  1  0  0  0  0
 35 37  2  0  0  0  0
 28 37  1  0  0  0  0
 37 38  1  0  0  0  0
 27 39  1  0  0  0  0
 27 40  1  0  0  0  0
 26 41  1  0  0  0  0
 26 42  1  0  0  0  0
 25 43  1  0  0  0  0
 22 44  1  0  0  0  0
 44 45  2  0  0  0  0
 45 46  1  0  0  0  0
 45 47  1  0  0  0  0
 47 48  1  0  0  0  0
 47 49  2  0  0  0  0
 49 50  1  0  0  0  0
 49 51  1  0  0  0  0
 51 52  2  0  0  0  0
 44 52  1  0  0  0  0
 52 53  1  0  0  0  0
 22 54  1  0  0  0  0
 11 55  1  0  0  0  0
 55 56  1  0  0  0  0
 55 57  2  0  0  0  0
  6 57  1  0  0  0  0
 57 58  1  0  0  0  0
  5 59  1  0  0  0  0
  5 60  1  0  0  0  0
  1 61  1  0  0  0  0
  1 62  1  0  0  0  0
  1 63  1  0  0  0  0
M  END
> <Potency>
27.6584027011477

> <pIC50>
4.558172904418609

> <Outcome>
Inactive

> <is_active>
0

$$$$

  Mrv1921 08232120312D          

 60 64  0  0  0  0            999 V2000
    1.0015   -4.5927    0.0000 O   0  0  0  0  0  0  0  0  0  0  0  0
    0.7314   -3.8132    0.0000 C   0  0  0  0  0  0  0  0  0  0  0  0
   -0.0787   -3.6573    0.0000 N   0  0  0  0  0  0  0  0  0  0  0  0
   -0.6188   -4.2809    0.0000 C   0  0  0  0  0  0  0  0  0  0  0  0
   -1.4289   -4.1250    0.0000 C   0  0  0  0  0  0  0  0  0  0  0  0
   -1.9690   -4.7486    0.0000 C   0  0  0  0  0  0  0  0  0  0  0  0
   -1.6990   -5.5282    0.0000 C   0  0  0  0  0  0  0  0  0  0  0  0
   -0.8889   -5.6841    0.0000 H   0  0  0  0  0  0  0  0  0  0  0  0
   -2.2391   -6.1518    0.0000 C   0  0  0  0  0  0  0  0  0  0  0  0
   -1.9690   -6.9314    0.0000 H   0  0  0  0  0  0  0  0  0  0  0  0
   -3.0492   -5.9959    0.0000 C   0  0  0  0  0  0  0  0  0  0  0  0
   -3.5893   -6.6196    0.0000 H   0  0  0  0  0  0  0  0  0  0  0  0
   -3.3193   -5.2164    0.0000 C   0  0  0  0  0  0  0  0  0  0  0  0
   -4.1294   -5.0605    0.0000 F   0  0  0  0  0  0  0  0  0  0  0  0
   -2.7792   -4.5927    0.0000 C   0  0  0  0  0  0  0  0  0  0  0  0
   -3.0492   -3.8132    0.0000 H   0  0  0  0  0  0  0  0  0  0  0  0
   -1.3204   -3.3072    0.0000 H   0  0  0  0  0  0  0  0  0  0  0  0
   -2.0201   -3.5496    0.0000 H   0  0  0  0  0  0  0  0  0  0  0  0
   -0.7273   -5.0987    0.0000 H   0  0  0  0  0  0  0  0  0  0  0  0
   -0.0276   -4.8563    0.0000 H   0  0  0  0  0  0  0  0  0  0  0  0
   -0.3488   -2.8777    0.0000 H   0  0  0  0  0  0  0  0  0  0  0  0
    1.2715   -3.1895    0.0000 C   0  0  0  0  0  0  0  0  0  0  0  0
    1.0015   -2.4100    0.0000 C   0  0  0  0  0  0  0  0  0  0  0  0
    0.1913   -2.2541    0.0000 C   0  0  0  0  0  0  0  0  0  0  0  0
   -0.6188   -2.0982    0.0000 H   0  0  0  0  0  0  0  0  0  0  0  0
   -0.0787   -1.4745    0.0000 C   0  0  0  0  0  0  0  0  0  0  0  0
   -0.7024   -0.9344    0.0000 H   0  0  0  0  0  0  0  0  0  0  0  0
    0.4614   -0.8509    0.0000 C   0  0  0  0  0  0  0  0  0  0  0  0
    0.1913   -0.0713    0.0000 H   0  0  0  0  0  0  0  0  0  0  0  0
    1.2715   -1.0068    0.0000 N   0  0  0  0  0  0  0  0  0  0  0  0
    1.5415   -1.7863    0.0000 C   0  0  0  0  0  0  0  0  0  0  0  0
    1.8116   -2.5659    0.0000 H   0  0  0  0  0  0  0  0  0  0  0  0
    2.0816   -3.3454    0.0000 N   0  0  0  0  0  0  0  0  0  0  0  0
    2.3517   -4.1250    0.0000 C   0  0  0  0  0  0  0  0  0  0  0  0
    1.8116   -4.7486    0.0000 O   0  0  0  0  0  0  0  0  0  0  0  0
    3.1618   -4.2809    0.0000 C   0  0  0  0  0  0  0  0  0  0  0  0
    3.5119   -5.0280    0.0000 C   0  0  0  0  0  0  0  0  0  0  0  0
    3.1132   -5.7503    0.0000 H   0  0  0  0  0  0  0  0  0  0  0  0
    4.3305   -4.9259    0.0000 O   0  0  0  0  0  0  0  0  0  0  0  0
    4.4864   -4.1158    0.0000 C   0  0  0  0  0  0  0  0  0  0  0  0
    5.2335   -3.7657    0.0000 H   0  0  0  0  0  0  0  0  0  0  0  0
    3.7641   -3.7171    0.0000 N   0  0  0  0  0  0  0  0  0  0  0  0
    2.6217   -2.7218    0.0000 C   0  0  0  0  0  0  0  0  0  0  0  0
    2.3517   -1.9423    0.0000 C   0  0  0  0  0  0  0  0  0  0  0  0
    2.0816   -1.1627    0.0000 H   0  0  0  0  0  0  0  0  0  0  0  0
    2.8918   -1.3186    0.0000 C   0  0  0  0  0  0  0  0  0  0  0  0
    3.0477   -0.5085    0.0000 H   0  0  0  0  0  0  0  0  0  0  0  0
    3.7019   -1.4745    0.0000 C   0  0  0  0  0  0  0  0  0  0  0  0
    4.3599   -0.9768    0.0000 N   0  0  0  0  0  0  0  0  0  0  0  0
    5.0365   -1.4487    0.0000 C   0  0  0  0  0  0  0  0  0  0  0  0
    5.8161   -1.1787    0.0000 C   0  0  0  0  0  0  0  0  0  0  0  0
    6.5956   -0.9087    0.0000 F   0  0  0  0  0  0  0  0  0  0  0  0
    6.0861   -1.9583    0.0000 F   0  0  0  0  0  0  0  0  0  0  0  0
    5.5460   -0.3991    0.0000 F   0  0  0  0  0  0  0  0  0  0  0  0
    4.7968   -2.2381    0.0000 N   0  0  0  0  0  0  0  0  0  0  0  0
    5.2945   -2.8961    0.0000 H   0  0  0  0  0  0  0  0  0  0  0  0
    3.9720   -2.2541    0.0000 C   0  0  0  0  0  0  0  0  0  0  0  0
    3.4319   -2.8777    0.0000 C   0  0  0  0  0  0  0  0  0  0  0  0
    2.9054   -3.5129    0.0000 H   0  0  0  0  0  0  0  0  0  0  0  0
    0.4614   -3.0336    0.0000 H   0  0  0  0  0  0  0  0  0  0  0  0
  1  2  2  0  0  0  0
  2  3  1  0  0  0  0
  3  4  1  0  0  0  0
  4  5  1  0  0  0  0
  5  6  1  0  0  0  0
  6  7  2  0  0  0  0
  7  8  1  0  0  0  0
  7  9  1  0  0  0  0
  9 10  1  0  0  0  0
  9 11  2  0  0  0  0
 11 12  1  0  0  0  0
 11 13  1  0  0  0  0
 13 14  1  0  0  0  0
 13 15  2  0  0  0  0
  6 15  1  0  0  0  0
 15 16  1  0  0  0  0
  5 17  1  0  0  0  0
  5 18  1  0  0  0  0
  4 19  1  0  0  0  0
  4 20  1  0  0  0  0
  3 21  1  0  0  0  0
  2 22  1  0  0  0  0
 22 23  1  0  0  0  0
 23 24  2  0  0  0  0
 24 25  1  0  0  0  0
 24 26  1  0  0  0  0
 26 27  1  0  0  0  0
 26 28  2  0  0  0  0
 28 29  1  0  0  0  0
 28 30  1  0  0  0  0
 30 31  2  0  0  0  0
 23 31  1  0  0  0  0
 31 32  1  0  0  0  0
 22 33  1  0  0  0  0
 33 34  1  0  0  0  0
 34 35  2  0  0  0  0
 34 36  1  0  0  0  0
 36 37  2  0  0  0  0
 37 38  1  0  0  0  0
 37 39  1  0  0  0  0
 39 40  1  0  0  0  0
 40 41  1  0  0  0  0
 40 42  2  0  0  0  0
 36 42  1  0  0  0  0
 33 43  1  0  0  0  0
 43 44  2  0  0  0  0
 44 45  1  0  0  0  0
 44 46  1  0  0  0  0
 46 47  1  0  0  0  0
 46 48  2  0  0  0  0
 48 49  1  0  0  0  0
 49 50  2  0  0  0  0
 50 51  1  0  0  0  0
 51 52  1  0  0  0  0
 51 53  1  0  0  0  0
 51 54  1  0  0  0  0
 50 55  1  0  0  0  0
 55 56  1  0  0  0  0
 55 57  1  0  0  0  0
 48 57  1  0  0  0  0
 57 58  2  0  0  0  0
 43 58  1  0  0  0  0
 58 59  1  0  0  0  0
 22 60  1  0  0  0  0
M  END
> <Potency>
77.5608938838158

> <pIC50>
4.110357194351305

> <Outcome>
Inactive

> <is_active>
0

$$$$

  Mrv1921 08232120312D          

 58 61  0  0  0  0            999 V2000
   -2.7004    0.6432    0.0000 C   0  0  0  0  0  0  0  0  0  0  0  0
   -1.8903    0.7991    0.0000 O   0  0  0  0  0  0  0  0  0  0  0  0
   -1.3502    0.1755    0.0000 C   0  0  0  0  0  0  0  0  0  0  0  0
   -0.5401    0.3314    0.0000 C   0  0  0  0  0  0  0  0  0  0  0  0
   -0.2700    1.1109    0.0000 H   0  0  0  0  0  0  0  0  0  0  0  0
    0.0000   -0.2923    0.0000 C   0  0  0  0  0  0  0  0  0  0  0  0
    0.5401   -0.9159    0.0000 H   0  0  0  0  0  0  0  0  0  0  0  0
   -0.2700   -1.0718    0.0000 C   0  0  0  0  0  0  0  0  0  0  0  0
    0.2700   -1.6954    0.0000 N   0  0  0  0  0  0  0  0  0  0  0  0
    0.0000   -2.4750    0.0000 C   0  0  0  0  0  0  0  0  0  0  0  0
    0.5401   -3.0986    0.0000 O   0  0  0  0  0  0  0  0  0  0  0  0
   -0.8101   -2.6309    0.0000 C   0  0  0  0  0  0  0  0  0  0  0  0
   -1.1602   -3.3780    0.0000 C   0  0  0  0  0  0  0  0  0  0  0  0
   -0.7616   -4.1003    0.0000 H   0  0  0  0  0  0  0  0  0  0  0  0
   -1.9788   -3.2759    0.0000 O   0  0  0  0  0  0  0  0  0  0  0  0
   -2.1348   -2.4658    0.0000 C   0  0  0  0  0  0  0  0  0  0  0  0
   -2.8818   -2.1157    0.0000 H   0  0  0  0  0  0  0  0  0  0  0  0
   -1.4125   -2.0671    0.0000 N   0  0  0  0  0  0  0  0  0  0  0  0
    1.0802   -1.5395    0.0000 C   0  0  0  0  0  0  0  0  0  0  0  0
    1.6203   -2.1632    0.0000 C   0  0  0  0  0  0  0  0  0  0  0  0
    1.3502   -2.9427    0.0000 O   0  0  0  0  0  0  0  0  0  0  0  0
    2.4304   -2.0073    0.0000 N   0  0  0  0  0  0  0  0  0  0  0  0
    2.9705   -2.6309    0.0000 C   0  0  0  0  0  0  0  0  0  0  0  0
    3.7806   -2.4750    0.0000 C   0  0  0  0  0  0  0  0  0  0  0  0
    4.3207   -3.0986    0.0000 C   0  0  0  0  0  0  0  0  0  0  0  0
    5.1308   -2.9427    0.0000 C   0  0  0  0  0  0  0  0  0  0  0  0
    5.4009   -2.1632    0.0000 H   0  0  0  0  0  0  0  0  0  0  0  0
    5.6709   -3.5664    0.0000 C   0  0  0  0  0  0  0  0  0  0  0  0
    6.4811   -3.4105    0.0000 H   0  0  0  0  0  0  0  0  0  0  0  0
    5.4009   -4.3459    0.0000 C   0  0  0  0  0  0  0  0  0  0  0  0
    5.9410   -4.9696    0.0000 H   0  0  0  0  0  0  0  0  0  0  0  0
    4.5908   -4.5018    0.0000 C   0  0  0  0  0  0  0  0  0  0  0  0
    4.3207   -5.2814    0.0000 F   0  0  0  0  0  0  0  0  0  0  0  0
    4.0507   -3.8782    0.0000 C   0  0  0  0  0  0  0  0  0  0  0  0
    3.2405   -4.0341    0.0000 H   0  0  0  0  0  0  0  0  0  0  0  0
    4.3718   -1.8996    0.0000 H   0  0  0  0  0  0  0  0  0  0  0  0
    3.6721   -1.6572    0.0000 H   0  0  0  0  0  0  0  0  0  0  0  0
    2.3793   -3.2063    0.0000 H   0  0  0  0  0  0  0  0  0  0  0  0
    3.0790   -3.4487    0.0000 H   0  0  0  0  0  0  0  0  0  0  0  0
    2.7004   -1.2277    0.0000 H   0  0  0  0  0  0  0  0  0  0  0  0
    1.3502   -0.7600    0.0000 C   0  0  0  0  0  0  0  0  0  0  0  0
    0.8101   -0.1363    0.0000 C   0  0  0  0  0  0  0  0  0  0  0  0
    0.2700    0.4873    0.0000 H   0  0  0  0  0  0  0  0  0  0  0  0
    1.0802    0.6432    0.0000 C   0  0  0  0  0  0  0  0  0  0  0  0
    0.9243    1.4533    0.0000 H   0  0  0  0  0  0  0  0  0  0  0  0
    1.8903    0.7991    0.0000 C   0  0  0  0  0  0  0  0  0  0  0  0
    2.1604    1.5787    0.0000 H   0  0  0  0  0  0  0  0  0  0  0  0
    2.4304    0.1755    0.0000 N   0  0  0  0  0  0  0  0  0  0  0  0
    2.1604   -0.6041    0.0000 C   0  0  0  0  0  0  0  0  0  0  0  0
    1.8903   -1.3836    0.0000 H   0  0  0  0  0  0  0  0  0  0  0  0
    0.8101   -2.3191    0.0000 H   0  0  0  0  0  0  0  0  0  0  0  0
   -1.0802   -1.2277    0.0000 C   0  0  0  0  0  0  0  0  0  0  0  0
   -1.8935   -1.3660    0.0000 H   0  0  0  0  0  0  0  0  0  0  0  0
   -1.6203   -0.6041    0.0000 C   0  0  0  0  0  0  0  0  0  0  0  0
   -2.3983   -0.3298    0.0000 H   0  0  0  0  0  0  0  0  0  0  0  0
   -2.8564    1.4533    0.0000 H   0  0  0  0  0  0  0  0  0  0  0  0
   -3.5106    0.4873    0.0000 H   0  0  0  0  0  0  0  0  0  0  0  0
   -2.5445   -0.1669    0.0000 H   0  0  0  0  0  0  0  0  0  0  0  0
  1  2  1  0  0  0  0
  2  3  1  0  0  0  0
  3  4  2  0  0  0  0
  4  5  1  0  0  0  0
  4  6  1  0  0  0  0
  6  7  1  0  0  0  0
  6  8  2  0  0  0  0
  8  9  1  0  0  0  0
  9 10  1  0  0  0  0
 10 11  2  0  0  0  0
 10 12  1  0  0  0  0
 12 13  2  0  0  0  0
 13 14  1  0  0  0  0
 13 15  1  0  0  0  0
 15 16  1  0  0  0  0
 16 17  1  0  0  0  0
 16 18  2  0  0  0  0
 12 18  1  0  0  0  0
  9 19  1  0  0  0  0
 19 20  1  0  0  0  0
 20 21  2  0  0  0  0
 20 22  1  0  0  0  0
 22 23  1  0  0  0  0
 23 24  1  0  0  0  0
 24 25  1  0  0  0  0
 25 26  2  0  0  0  0
 26 27  1  0  0  0  0
 26 28  1  0  0  0  0
 28 29  1  0  0  0  0
 28 30  2  0  0  0  0
 30 31  1  0  0  0  0
 30 32  1  0  0  0  0
 32 33  1  0  0  0  0
 32 34  2  0  0  0  0
 25 34  1  0  0  0  0
 34 35  1  0  0  0  0
 24 36  1  0  0  0  0
 24 37  1  0  0  0  0
 23 38  1  0  0  0  0
 23 39  1  0  0  0  0
 22 40  1  0  0  0  0
 19 41  1  0  0  0  0
 41 42  2  0  0  0  0
 42 43  1  0  0  0  0
 42 44  1  0  0  0  0
 44 45  1  0  0  0  0
 44 46  2  0  0  0  0
 46 47  1  0  0  0  0
 46 48  1  0  0  0  0
 48 49  2  0  0  0  0
 41 49  1  0  0  0  0
 49 50  1  0  0  0  0
 19 51  1  0  0  0  0
  8 52  1  0  0  0  0
 52 53  1  0  0  0  0
 52 54  2  0  0  0  0
  3 54  1  0  0  0  0
 54 55  1  0  0  0  0
  1 56  1  0  0  0  0
  1 57  1  0  0  0  0
  1 58  1  0  0  0  0
M  END
> <Potency>
22.1784063885424

> <pIC50>
4.654069662944602

> <Outcome>
Inactive

> <is_active>
0

$$$$

  Mrv1921 08232120312D          

 61 65  0  0  0  0            999 V2000
   -3.2820    5.5373    0.0000 C   0  0  0  0  0  0  0  0  0  0  0  0
   -2.4633    5.4353    0.0000 N   0  0  0  0  0  0  0  0  0  0  0  0
   -1.8995    6.0376    0.0000 C   0  0  0  0  0  0  0  0  0  0  0  0
   -2.0555    6.8477    0.0000 H   0  0  0  0  0  0  0  0  0  0  0  0
   -1.1525    5.6875    0.0000 C   0  0  0  0  0  0  0  0  0  0  0  0
   -0.4302    6.0862    0.0000 H   0  0  0  0  0  0  0  0  0  0  0  0
   -1.2546    4.8689    0.0000 C   0  0  0  0  0  0  0  0  0  0  0  0
   -0.7145    4.2452    0.0000 C   0  0  0  0  0  0  0  0  0  0  0  0
   -0.9845    3.4657    0.0000 C   0  0  0  0  0  0  0  0  0  0  0  0
   -0.4444    2.8421    0.0000 N   0  0  0  0  0  0  0  0  0  0  0  0
   -0.7145    2.0625    0.0000 C   0  0  0  0  0  0  0  0  0  0  0  0
   -0.1744    1.4389    0.0000 O   0  0  0  0  0  0  0  0  0  0  0  0
   -1.5246    1.9066    0.0000 C   0  0  0  0  0  0  0  0  0  0  0  0
   -1.8747    1.1595    0.0000 C   0  0  0  0  0  0  0  0  0  0  0  0
   -1.4760    0.4372    0.0000 H   0  0  0  0  0  0  0  0  0  0  0  0
   -2.6933    1.2616    0.0000 O   0  0  0  0  0  0  0  0  0  0  0  0
   -2.8492    2.0717    0.0000 C   0  0  0  0  0  0  0  0  0  0  0  0
   -3.5963    2.4218    0.0000 H   0  0  0  0  0  0  0  0  0  0  0  0
   -2.1269    2.4704    0.0000 N   0  0  0  0  0  0  0  0  0  0  0  0
    0.3657    2.9980    0.0000 C   0  0  0  0  0  0  0  0  0  0  0  0
    0.9058    2.3743    0.0000 C   0  0  0  0  0  0  0  0  0  0  0  0
    0.6358    1.5948    0.0000 O   0  0  0  0  0  0  0  0  0  0  0  0
    1.7159    2.5302    0.0000 N   0  0  0  0  0  0  0  0  0  0  0  0
    2.2560    1.9066    0.0000 C   0  0  0  0  0  0  0  0  0  0  0  0
    3.0662    2.0625    0.0000 C   0  0  0  0  0  0  0  0  0  0  0  0
    3.6062    1.4389    0.0000 C   0  0  0  0  0  0  0  0  0  0  0  0
    4.4164    1.5948    0.0000 C   0  0  0  0  0  0  0  0  0  0  0  0
    4.6864    2.3743    0.0000 H   0  0  0  0  0  0  0  0  0  0  0  0
    4.9565    0.9711    0.0000 C   0  0  0  0  0  0  0  0  0  0  0  0
    5.7666    1.1270    0.0000 H   0  0  0  0  0  0  0  0  0  0  0  0
    4.6864    0.1916    0.0000 C   0  0  0  0  0  0  0  0  0  0  0  0
    5.2265   -0.4321    0.0000 H   0  0  0  0  0  0  0  0  0  0  0  0
    3.8763    0.0357    0.0000 C   0  0  0  0  0  0  0  0  0  0  0  0
    3.6062   -0.7439    0.0000 F   0  0  0  0  0  0  0  0  0  0  0  0
    3.3362    0.6593    0.0000 C   0  0  0  0  0  0  0  0  0  0  0  0
    2.5261    0.5034    0.0000 H   0  0  0  0  0  0  0  0  0  0  0  0
    3.6573    2.6379    0.0000 H   0  0  0  0  0  0  0  0  0  0  0  0
    2.9576    2.8803    0.0000 H   0  0  0  0  0  0  0  0  0  0  0  0
    1.6648    1.3312    0.0000 H   0  0  0  0  0  0  0  0  0  0  0  0
    2.3646    1.0888    0.0000 H   0  0  0  0  0  0  0  0  0  0  0  0
    1.9860    3.3098    0.0000 H   0  0  0  0  0  0  0  0  0  0  0  0
    0.6358    3.7775    0.0000 C   0  0  0  0  0  0  0  0  0  0  0  0
    0.0957    4.4012    0.0000 C   0  0  0  0  0  0  0  0  0  0  0  0
   -0.1744    3.6216    0.0000 H   0  0  0  0  0  0  0  0  0  0  0  0
    0.3657    5.1807    0.0000 C   0  0  0  0  0  0  0  0  0  0  0  0
    0.2098    5.9908    0.0000 H   0  0  0  0  0  0  0  0  0  0  0  0
    1.1758    5.3366    0.0000 C   0  0  0  0  0  0  0  0  0  0  0  0
    1.4459    6.1162    0.0000 H   0  0  0  0  0  0  0  0  0  0  0  0
    1.7159    4.7130    0.0000 N   0  0  0  0  0  0  0  0  0  0  0  0
    1.4459    3.9334    0.0000 C   0  0  0  0  0  0  0  0  0  0  0  0
    1.1758    3.1539    0.0000 H   0  0  0  0  0  0  0  0  0  0  0  0
    0.0957    2.2184    0.0000 H   0  0  0  0  0  0  0  0  0  0  0  0
   -1.7946    3.3098    0.0000 C   0  0  0  0  0  0  0  0  0  0  0  0
   -2.3347    3.9334    0.0000 C   0  0  0  0  0  0  0  0  0  0  0  0
   -3.1128    4.2077    0.0000 H   0  0  0  0  0  0  0  0  0  0  0  0
   -2.0647    4.7130    0.0000 C   0  0  0  0  0  0  0  0  0  0  0  0
   -2.6080    3.1715    0.0000 H   0  0  0  0  0  0  0  0  0  0  0  0
   -0.4444    5.0248    0.0000 H   0  0  0  0  0  0  0  0  0  0  0  0
   -3.1799    6.3560    0.0000 H   0  0  0  0  0  0  0  0  0  0  0  0
   -4.1006    5.6394    0.0000 H   0  0  0  0  0  0  0  0  0  0  0  0
   -3.3840    4.7187    0.0000 H   0  0  0  0  0  0  0  0  0  0  0  0
  1  2  1  0  0  0  0
  2  3  1  0  0  0  0
  3  4  1  0  0  0  0
  3  5  2  0  0  0  0
  5  6  1  0  0  0  0
  5  7  1  0  0  0  0
  7  8  2  0  0  0  0
  8  9  1  0  0  0  0
  9 10  1  0  0  0  0
 10 11  1  0  0  0  0
 11 12  2  0  0  0  0
 11 13  1  0  0  0  0
 13 14  2  0  0  0  0
 14 15  1  0  0  0  0
 14 16  1  0  0  0  0
 16 17  1  0  0  0  0
 17 18  1  0  0  0  0
 17 19  2  0  0  0  0
 13 19  1  0  0  0  0
 10 20  1  0  0  0  0
 20 21  1  0  0  0  0
 21 22  2  0  0  0  0
 21 23  1  0  0  0  0
 23 24  1  0  0  0  0
 24 25  1  0  0  0  0
 25 26  1  0  0  0  0
 26 27  2  0  0  0  0
 27 28  1  0  0  0  0
 27 29  1  0  0  0  0
 29 30  1  0  0  0  0
 29 31  2  0  0  0  0
 31 32  1  0  0  0  0
 31 33  1  0  0  0  0
 33 34  1  0  0  0  0
 33 35  2  0  0  0  0
 26 35  1  0  0  0  0
 35 36  1  0  0  0  0
 25 37  1  0  0  0  0
 25 38  1  0  0  0  0
 24 39  1  0  0  0  0
 24 40  1  0  0  0  0
 23 41  1  0  0  0  0
 20 42  1  0  0  0  0
 42 43  2  0  0  0  0
 43 44  1  0  0  0  0
 43 45  1  0  0  0  0
 45 46  1  0  0  0  0
 45 47  2  0  0  0  0
 47 48  1  0  0  0  0
 47 49  1  0  0  0  0
 49 50  2  0  0  0  0
 42 50  1  0  0  0  0
 50 51  1  0  0  0  0
 20 52  1  0  0  0  0
  9 53  2  0  0  0  0
 53 54  1  0  0  0  0
 54 55  1  0  0  0  0
 54 56  2  0  0  0  0
  2 56  1  0  0  0  0
  7 56  1  0  0  0  0
 53 57  1  0  0  0  0
  8 58  1  0  0  0  0
  1 59  1  0  0  0  0
  1 60  1  0  0  0  0
  1 61  1  0  0  0  0
M  END
> <Potency>
23.7763064981952

> <pIC50>
4.623855609432939

> <Outcome>
Inactive

> <is_active>
0

$$$$

  Mrv1921 08232120312D          

 56 60  0  0  0  0            999 V2000
    5.2883   -3.6573    0.0000 O   0  0  0  0  0  0  0  0  0  0  0  0
    5.0182   -4.4368    0.0000 C   0  0  0  0  0  0  0  0  0  0  0  0
    4.2081   -4.5927    0.0000 N   0  0  0  0  0  0  0  0  0  0  0  0
    3.6680   -3.9691    0.0000 C   0  0  0  0  0  0  0  0  0  0  0  0
    2.8579   -4.1250    0.0000 C   0  0  0  0  0  0  0  0  0  0  0  0
    2.3178   -3.5014    0.0000 C   0  0  0  0  0  0  0  0  0  0  0  0
    1.5077   -3.6573    0.0000 C   0  0  0  0  0  0  0  0  0  0  0  0
    1.2376   -4.4368    0.0000 H   0  0  0  0  0  0  0  0  0  0  0  0
    0.9676   -3.0336    0.0000 C   0  0  0  0  0  0  0  0  0  0  0  0
    0.1574   -3.1895    0.0000 H   0  0  0  0  0  0  0  0  0  0  0  0
    1.2376   -2.2541    0.0000 C   0  0  0  0  0  0  0  0  0  0  0  0
    0.6975   -1.6304    0.0000 H   0  0  0  0  0  0  0  0  0  0  0  0
    2.0477   -2.0982    0.0000 C   0  0  0  0  0  0  0  0  0  0  0  0
    2.3178   -1.3186    0.0000 F   0  0  0  0  0  0  0  0  0  0  0  0
    2.5878   -2.7218    0.0000 C   0  0  0  0  0  0  0  0  0  0  0  0
    3.3980   -2.5659    0.0000 H   0  0  0  0  0  0  0  0  0  0  0  0
    2.2667   -4.7004    0.0000 H   0  0  0  0  0  0  0  0  0  0  0  0
    2.9664   -4.9428    0.0000 H   0  0  0  0  0  0  0  0  0  0  0  0
    4.2592   -3.3937    0.0000 H   0  0  0  0  0  0  0  0  0  0  0  0
    3.5595   -3.1513    0.0000 H   0  0  0  0  0  0  0  0  0  0  0  0
    3.9381   -5.3723    0.0000 H   0  0  0  0  0  0  0  0  0  0  0  0
    5.5583   -5.0605    0.0000 C   0  0  0  0  0  0  0  0  0  0  0  0
    5.2883   -5.8400    0.0000 C   0  0  0  0  0  0  0  0  0  0  0  0
    5.8284   -6.4637    0.0000 C   0  0  0  0  0  0  0  0  0  0  0  0
    6.0984   -5.6841    0.0000 H   0  0  0  0  0  0  0  0  0  0  0  0
    5.5583   -7.2432    0.0000 C   0  0  0  0  0  0  0  0  0  0  0  0
    6.0984   -7.8668    0.0000 H   0  0  0  0  0  0  0  0  0  0  0  0
    4.7482   -7.3991    0.0000 C   0  0  0  0  0  0  0  0  0  0  0  0
    4.4782   -8.1787    0.0000 H   0  0  0  0  0  0  0  0  0  0  0  0
    4.2081   -6.7755    0.0000 N   0  0  0  0  0  0  0  0  0  0  0  0
    4.4782   -5.9959    0.0000 C   0  0  0  0  0  0  0  0  0  0  0  0
    3.6680   -6.1518    0.0000 H   0  0  0  0  0  0  0  0  0  0  0  0
    6.3685   -4.9046    0.0000 N   0  0  0  0  0  0  0  0  0  0  0  0
    6.6385   -4.1250    0.0000 C   0  0  0  0  0  0  0  0  0  0  0  0
    6.0984   -3.5014    0.0000 O   0  0  0  0  0  0  0  0  0  0  0  0
    7.4486   -3.9691    0.0000 C   0  0  0  0  0  0  0  0  0  0  0  0
    7.7987   -3.2220    0.0000 C   0  0  0  0  0  0  0  0  0  0  0  0
    7.4001   -2.4997    0.0000 H   0  0  0  0  0  0  0  0  0  0  0  0
    8.6174   -3.3241    0.0000 O   0  0  0  0  0  0  0  0  0  0  0  0
    8.7733   -4.1342    0.0000 C   0  0  0  0  0  0  0  0  0  0  0  0
    9.5203   -4.4843    0.0000 H   0  0  0  0  0  0  0  0  0  0  0  0
    8.0510   -4.5329    0.0000 N   0  0  0  0  0  0  0  0  0  0  0  0
    6.9086   -5.5282    0.0000 C   0  0  0  0  0  0  0  0  0  0  0  0
    7.7187   -5.3723    0.0000 C   0  0  0  0  0  0  0  0  0  0  0  0
    7.1923   -4.7371    0.0000 H   0  0  0  0  0  0  0  0  0  0  0  0
    8.2588   -5.9959    0.0000 C   0  0  0  0  0  0  0  0  0  0  0  0
    9.0689   -5.8400    0.0000 H   0  0  0  0  0  0  0  0  0  0  0  0
    7.9887   -6.7755    0.0000 C   0  0  0  0  0  0  0  0  0  0  0  0
    8.3874   -7.4978    0.0000 N   0  0  0  0  0  0  0  0  0  0  0  0
    7.8236   -8.1001    0.0000 C   0  0  0  0  0  0  0  0  0  0  0  0
    7.0765   -7.7500    0.0000 S   0  0  0  0  0  0  0  0  0  0  0  0
    7.1786   -6.9314    0.0000 C   0  0  0  0  0  0  0  0  0  0  0  0
    6.6385   -6.3077    0.0000 C   0  0  0  0  0  0  0  0  0  0  0  0
    7.4486   -6.1518    0.0000 H   0  0  0  0  0  0  0  0  0  0  0  0
    7.9795   -8.9102    0.0000 H   0  0  0  0  0  0  0  0  0  0  0  0
    4.7482   -5.2164    0.0000 H   0  0  0  0  0  0  0  0  0  0  0  0
  1  2  2  0  0  0  0
  2  3  1  0  0  0  0
  3  4  1  0  0  0  0
  4  5  1  0  0  0  0
  5  6  1  0  0  0  0
  6  7  2  0  0  0  0
  7  8  1  0  0  0  0
  7  9  1  0  0  0  0
  9 10  1  0  0  0  0
  9 11  2  0  0  0  0
 11 12  1  0  0  0  0
 11 13  1  0  0  0  0
 13 14  1  0  0  0  0
 13 15  2  0  0  0  0
  6 15  1  0  0  0  0
 15 16  1  0  0  0  0
  5 17  1  0  0  0  0
  5 18  1  0  0  0  0
  4 19  1  0  0  0  0
  4 20  1  0  0  0  0
  3 21  1  0  0  0  0
  2 22  1  0  0  0  0
 22 23  1  0  0  0  0
 23 24  2  0  0  0  0
 24 25  1  0  0  0  0
 24 26  1  0  0  0  0
 26 27  1  0  0  0  0
 26 28  2  0  0  0  0
 28 29  1  0  0  0  0
 28 30  1  0  0  0  0
 30 31  2  0  0  0  0
 23 31  1  0  0  0  0
 31 32  1  0  0  0  0
 22 33  1  0  0  0  0
 33 34  1  0  0  0  0
 34 35  2  0  0  0  0
 34 36  1  0  0  0  0
 36 37  2  0  0  0  0
 37 38  1  0  0  0  0
 37 39  1  0  0  0  0
 39 40  1  0  0  0  0
 40 41  1  0  0  0  0
 40 42  2  0  0  0  0
 36 42  1  0  0  0  0
 33 43  1  0  0  0  0
 43 44  2  0  0  0  0
 44 45  1  0  0  0  0
 44 46  1  0  0  0  0
 46 47  1  0  0  0  0
 46 48  2  0  0  0  0
 48 49  1  0  0  0  0
 49 50  2  0  0  0  0
 50 51  1  0  0  0  0
 51 52  1  0  0  0  0
 48 52  1  0  0  0  0
 52 53  2  0  0  0  0
 43 53  1  0  0  0  0
 53 54  1  0  0  0  0
 50 55  1  0  0  0  0
 22 56  1  0  0  0  0
M  END
> <Potency>
60.4763825168941

> <pIC50>
4.21841419468836

> <Outcome>
Inactive

> <is_active>
0

$$$$

  Mrv1921 08232120312D          

 57 60  0  0  0  0            999 V2000
   -1.8903    0.7991    0.0000 C   0  0  0  0  0  0  0  0  0  0  0  0
   -1.3502    0.1755    0.0000 C   0  0  0  0  0  0  0  0  0  0  0  0
   -0.5401    0.3314    0.0000 C   0  0  0  0  0  0  0  0  0  0  0  0
   -0.2700    1.1109    0.0000 H   0  0  0  0  0  0  0  0  0  0  0  0
    0.0000   -0.2923    0.0000 C   0  0  0  0  0  0  0  0  0  0  0  0
    0.5401   -0.9159    0.0000 H   0  0  0  0  0  0  0  0  0  0  0  0
   -0.2700   -1.0718    0.0000 C   0  0  0  0  0  0  0  0  0  0  0  0
    0.2700   -1.6954    0.0000 N   0  0  0  0  0  0  0  0  0  0  0  0
    0.0000   -2.4750    0.0000 C   0  0  0  0  0  0  0  0  0  0  0  0
    0.5401   -3.0986    0.0000 O   0  0  0  0  0  0  0  0  0  0  0  0
   -0.8101   -2.6309    0.0000 C   0  0  0  0  0  0  0  0  0  0  0  0
   -1.1602   -3.3780    0.0000 C   0  0  0  0  0  0  0  0  0  0  0  0
   -0.7616   -4.1003    0.0000 H   0  0  0  0  0  0  0  0  0  0  0  0
   -1.9788   -3.2759    0.0000 O   0  0  0  0  0  0  0  0  0  0  0  0
   -2.1348   -2.4658    0.0000 C   0  0  0  0  0  0  0  0  0  0  0  0
   -2.8818   -2.1157    0.0000 H   0  0  0  0  0  0  0  0  0  0  0  0
   -1.4125   -2.0671    0.0000 N   0  0  0  0  0  0  0  0  0  0  0  0
    1.0802   -1.5395    0.0000 C   0  0  0  0  0  0  0  0  0  0  0  0
    1.6203   -2.1632    0.0000 C   0  0  0  0  0  0  0  0  0  0  0  0
    1.3502   -2.9427    0.0000 O   0  0  0  0  0  0  0  0  0  0  0  0
    2.4304   -2.0073    0.0000 N   0  0  0  0  0  0  0  0  0  0  0  0
    2.9705   -2.6309    0.0000 C   0  0  0  0  0  0  0  0  0  0  0  0
    3.7806   -2.4750    0.0000 C   0  0  0  0  0  0  0  0  0  0  0  0
    4.3207   -3.0986    0.0000 C   0  0  0  0  0  0  0  0  0  0  0  0
    5.1308   -2.9427    0.0000 C   0  0  0  0  0  0  0  0  0  0  0  0
    5.4009   -2.1632    0.0000 H   0  0  0  0  0  0  0  0  0  0  0  0
    5.6709   -3.5664    0.0000 C   0  0  0  0  0  0  0  0  0  0  0  0
    6.4811   -3.4105    0.0000 H   0  0  0  0  0  0  0  0  0  0  0  0
    5.4009   -4.3459    0.0000 C   0  0  0  0  0  0  0  0  0  0  0  0
    5.9410   -4.9696    0.0000 H   0  0  0  0  0  0  0  0  0  0  0  0
    4.5908   -4.5018    0.0000 C   0  0  0  0  0  0  0  0  0  0  0  0
    4.3207   -5.2814    0.0000 F   0  0  0  0  0  0  0  0  0  0  0  0
    4.0507   -3.8782    0.0000 C   0  0  0  0  0  0  0  0  0  0  0  0
    3.2405   -4.0341    0.0000 H   0  0  0  0  0  0  0  0  0  0  0  0
    4.3718   -1.8996    0.0000 H   0  0  0  0  0  0  0  0  0  0  0  0
    3.6721   -1.6572    0.0000 H   0  0  0  0  0  0  0  0  0  0  0  0
    2.3793   -3.2063    0.0000 H   0  0  0  0  0  0  0  0  0  0  0  0
    3.0790   -3.4487    0.0000 H   0  0  0  0  0  0  0  0  0  0  0  0
    2.7004   -1.2277    0.0000 H   0  0  0  0  0  0  0  0  0  0  0  0
    1.3502   -0.7600    0.0000 C   0  0  0  0  0  0  0  0  0  0  0  0
    0.8101   -0.1363    0.0000 C   0  0  0  0  0  0  0  0  0  0  0  0
    0.2700    0.4873    0.0000 H   0  0  0  0  0  0  0  0  0  0  0  0
    1.0802    0.6432    0.0000 C   0  0  0  0  0  0  0  0  0  0  0  0
    0.9243    1.4533    0.0000 H   0  0  0  0  0  0  0  0  0  0  0  0
    1.8903    0.7991    0.0000 C   0  0  0  0  0  0  0  0  0  0  0  0
    2.1604    1.5787    0.0000 H   0  0  0  0  0  0  0  0  0  0  0  0
    2.4304    0.1755    0.0000 N   0  0  0  0  0  0  0  0  0  0  0  0
    2.1604   -0.6041    0.0000 C   0  0  0  0  0  0  0  0  0  0  0  0
    1.8903   -1.3836    0.0000 H   0  0  0  0  0  0  0  0  0  0  0  0
    0.8101   -2.3191    0.0000 H   0  0  0  0  0  0  0  0  0  0  0  0
   -1.0802   -1.2277    0.0000 C   0  0  0  0  0  0  0  0  0  0  0  0
   -1.8935   -1.3660    0.0000 H   0  0  0  0  0  0  0  0  0  0  0  0
   -1.6203   -0.6041    0.0000 C   0  0  0  0  0  0  0  0  0  0  0  0
   -2.3983   -0.3298    0.0000 H   0  0  0  0  0  0  0  0  0  0  0  0
   -1.2667    1.3392    0.0000 H   0  0  0  0  0  0  0  0  0  0  0  0
   -2.4304    1.4228    0.0000 H   0  0  0  0  0  0  0  0  0  0  0  0
   -2.5140    0.2590    0.0000 H   0  0  0  0  0  0  0  0  0  0  0  0
  1  2  1  0  0  0  0
  2  3  2  0  0  0  0
  3  4  1  0  0  0  0
  3  5  1  0  0  0  0
  5  6  1  0  0  0  0
  5  7  2  0  0  0  0
  7  8  1  0  0  0  0
  8  9  1  0  0  0  0
  9 10  2  0  0  0  0
  9 11  1  0  0  0  0
 11 12  2  0  0  0  0
 12 13  1  0  0  0  0
 12 14  1  0  0  0  0
 14 15  1  0  0  0  0
 15 16  1  0  0  0  0
 15 17  2  0  0  0  0
 11 17  1  0  0  0  0
  8 18  1  0  0  0  0
 18 19  1  0  0  0  0
 19 20  2  0  0  0  0
 19 21  1  0  0  0  0
 21 22  1  0  0  0  0
 22 23  1  0  0  0  0
 23 24  1  0  0  0  0
 24 25  2  0  0  0  0
 25 26  1  0  0  0  0
 25 27  1  0  0  0  0
 27 28  1  0  0  0  0
 27 29  2  0  0  0  0
 29 30  1  0  0  0  0
 29 31  1  0  0  0  0
 31 32  1  0  0  0  0
 31 33  2  0  0  0  0
 24 33  1  0  0  0  0
 33 34  1  0  0  0  0
 23 35  1  0  0  0  0
 23 36  1  0  0  0  0
 22 37  1  0  0  0  0
 22 38  1  0  0  0  0
 21 39  1  0  0  0  0
 18 40  1  0  0  0  0
 40 41  2  0  0  0  0
 41 42  1  0  0  0  0
 41 43  1  0  0  0  0
 43 44  1  0  0  0  0
 43 45  2  0  0  0  0
 45 46  1  0  0  0  0
 45 47  1  0  0  0  0
 47 48  2  0  0  0  0
 40 48  1  0  0  0  0
 48 49  1  0  0  0  0
 18 50  1  0  0  0  0
  7 51  1  0  0  0  0
 51 52  1  0  0  0  0
 51 53  2  0  0  0  0
  2 53  1  0  0  0  0
 53 54  1  0  0  0  0
  1 55  1  0  0  0  0
  1 56  1  0  0  0  0
  1 57  1  0  0  0  0
M  END
> <Potency>
50.1942931711597

> <pIC50>
4.2993456570614

> <Outcome>
Inactive

> <is_active>
0

$$$$

  Mrv1921 08232120312D          

 54 57  0  0  0  0            999 V2000
    6.4302   -2.8875    0.0000 O   0  0  0  0  0  0  0  0  0  0  0  0
    6.4302   -2.0625    0.0000 C   0  0  0  0  0  0  0  0  0  0  0  0
    5.7158   -1.6500    0.0000 N   0  0  0  0  0  0  0  0  0  0  0  0
    5.0013   -2.0625    0.0000 C   0  0  0  0  0  0  0  0  0  0  0  0
    4.2868   -1.6500    0.0000 C   0  0  0  0  0  0  0  0  0  0  0  0
    3.5724   -2.0625    0.0000 C   0  0  0  0  0  0  0  0  0  0  0  0
    3.5724   -2.8875    0.0000 C   0  0  0  0  0  0  0  0  0  0  0  0
    4.2868   -3.3000    0.0000 H   0  0  0  0  0  0  0  0  0  0  0  0
    2.8579   -3.3000    0.0000 C   0  0  0  0  0  0  0  0  0  0  0  0
    2.8579   -4.1250    0.0000 H   0  0  0  0  0  0  0  0  0  0  0  0
    2.1434   -2.8875    0.0000 C   0  0  0  0  0  0  0  0  0  0  0  0
    1.4289   -3.3000    0.0000 H   0  0  0  0  0  0  0  0  0  0  0  0
    2.1434   -2.0625    0.0000 C   0  0  0  0  0  0  0  0  0  0  0  0
    1.4289   -1.6500    0.0000 F   0  0  0  0  0  0  0  0  0  0  0  0
    2.8579   -1.6500    0.0000 C   0  0  0  0  0  0  0  0  0  0  0  0
    2.8579   -0.8250    0.0000 H   0  0  0  0  0  0  0  0  0  0  0  0
    4.6571   -0.9128    0.0000 H   0  0  0  0  0  0  0  0  0  0  0  0
    3.9166   -0.9128    0.0000 H   0  0  0  0  0  0  0  0  0  0  0  0
    4.6310   -2.7997    0.0000 H   0  0  0  0  0  0  0  0  0  0  0  0
    5.3716   -2.7997    0.0000 H   0  0  0  0  0  0  0  0  0  0  0  0
    5.7158   -0.8250    0.0000 H   0  0  0  0  0  0  0  0  0  0  0  0
    7.1447   -1.6500    0.0000 C   0  0  0  0  0  0  0  0  0  0  0  0
    7.1447   -0.8250    0.0000 C   0  0  0  0  0  0  0  0  0  0  0  0
    6.4302   -0.4125    0.0000 C   0  0  0  0  0  0  0  0  0  0  0  0
    5.7158   -0.0000    0.0000 H   0  0  0  0  0  0  0  0  0  0  0  0
    6.4302    0.4125    0.0000 C   0  0  0  0  0  0  0  0  0  0  0  0
    6.0177    1.1270    0.0000 H   0  0  0  0  0  0  0  0  0  0  0  0
    7.1447    0.8250    0.0000 C   0  0  0  0  0  0  0  0  0  0  0  0
    7.1447    1.6500    0.0000 H   0  0  0  0  0  0  0  0  0  0  0  0
    7.8592    0.4125    0.0000 N   0  0  0  0  0  0  0  0  0  0  0  0
    7.8592   -0.4125    0.0000 C   0  0  0  0  0  0  0  0  0  0  0  0
    7.8592   -1.2375    0.0000 H   0  0  0  0  0  0  0  0  0  0  0  0
    7.8592   -2.0625    0.0000 N   0  0  0  0  0  0  0  0  0  0  0  0
    8.5737   -1.6500    0.0000 C   0  0  0  0  0  0  0  0  0  0  0  0
    8.5737   -0.8250    0.0000 O   0  0  0  0  0  0  0  0  0  0  0  0
    9.2881   -2.0625    0.0000 C   0  0  0  0  0  0  0  0  0  0  0  0
   10.0418   -1.7269    0.0000 C   0  0  0  0  0  0  0  0  0  0  0  0
   10.2133   -0.9200    0.0000 H   0  0  0  0  0  0  0  0  0  0  0  0
   10.5938   -2.3400    0.0000 O   0  0  0  0  0  0  0  0  0  0  0  0
   10.1813   -3.0545    0.0000 C   0  0  0  0  0  0  0  0  0  0  0  0
   10.5169   -3.8082    0.0000 H   0  0  0  0  0  0  0  0  0  0  0  0
    9.3744   -2.8830    0.0000 N   0  0  0  0  0  0  0  0  0  0  0  0
    7.8592   -2.8875    0.0000 C   0  0  0  0  0  0  0  0  0  0  0  0
    8.5737   -3.3000    0.0000 C   0  0  0  0  0  0  0  0  0  0  0  0
    8.5916   -2.4752    0.0000 H   0  0  0  0  0  0  0  0  0  0  0  0
    8.5737   -4.1250    0.0000 C   0  0  0  0  0  0  0  0  0  0  0  0
    9.2881   -4.5375    0.0000 H   0  0  0  0  0  0  0  0  0  0  0  0
    7.8592   -4.5375    0.0000 C   0  0  0  0  0  0  0  0  0  0  0  0
    7.8592   -5.3625    0.0000 H   0  0  0  0  0  0  0  0  0  0  0  0
    7.1447   -4.1250    0.0000 C   0  0  0  0  0  0  0  0  0  0  0  0
    6.4302   -4.5375    0.0000 H   0  0  0  0  0  0  0  0  0  0  0  0
    7.1447   -3.3000    0.0000 C   0  0  0  0  0  0  0  0  0  0  0  0
    7.1447   -2.4750    0.0000 H   0  0  0  0  0  0  0  0  0  0  0  0
    6.4302   -1.2375    0.0000 H   0  0  0  0  0  0  0  0  0  0  0  0
  1  2  2  0  0  0  0
  2  3  1  0  0  0  0
  3  4  1  0  0  0  0
  4  5  1  0  0  0  0
  5  6  1  0  0  0  0
  6  7  2  0  0  0  0
  7  8  1  0  0  0  0
  7  9  1  0  0  0  0
  9 10  1  0  0  0  0
  9 11  2  0  0  0  0
 11 12  1  0  0  0  0
 11 13  1  0  0  0  0
 13 14  1  0  0  0  0
 13 15  2  0  0  0  0
  6 15  1  0  0  0  0
 15 16  1  0  0  0  0
  5 17  1  0  0  0  0
  5 18  1  0  0  0  0
  4 19  1  0  0  0  0
  4 20  1  0  0  0  0
  3 21  1  0  0  0  0
  2 22  1  0  0  0  0
 22 23  1  0  0  0  0
 23 24  2  0  0  0  0
 24 25  1  0  0  0  0
 24 26  1  0  0  0  0
 26 27  1  0  0  0  0
 26 28  2  0  0  0  0
 28 29  1  0  0  0  0
 28 30  1  0  0  0  0
 30 31  2  0  0  0  0
 23 31  1  0  0  0  0
 31 32  1  0  0  0  0
 22 33  1  0  0  0  0
 33 34  1  0  0  0  0
 34 35  2  0  0  0  0
 34 36  1  0  0  0  0
 36 37  2  0  0  0  0
 37 38  1  0  0  0  0
 37 39  1  0  0  0  0
 39 40  1  0  0  0  0
 40 41  1  0  0  0  0
 40 42  2  0  0  0  0
 36 42  1  0  0  0  0
 33 43  1  0  0  0  0
 43 44  2  0  0  0  0
 44 45  1  0  0  0  0
 44 46  1  0  0  0  0
 46 47  1  0  0  0  0
 46 48  2  0  0  0  0
 48 49  1  0  0  0  0
 48 50  1  0  0  0  0
 50 51  1  0  0  0  0
 50 52  2  0  0  0  0
 43 52  1  0  0  0  0
 52 53  1  0  0  0  0
 22 54  1  0  0  0  0
M  END
> <Potency>
89.2137756521297

> <pIC50>
4.049568080289997

> <Outcome>
Inactive

> <is_active>
0

$$$$

  Mrv1921 08232120312D          

 68 72  0  0  0  0            999 V2000
   -2.5709   -1.7052    0.0000 O   0  0  0  0  0  0  0  0  0  0  0  0
   -2.8409   -0.9257    0.0000 C   0  0  0  0  0  0  0  0  0  0  0  0
   -3.6511   -0.7698    0.0000 N   0  0  0  0  0  0  0  0  0  0  0  0
   -4.1912   -1.3934    0.0000 C   0  0  0  0  0  0  0  0  0  0  0  0
   -5.0013   -1.2375    0.0000 C   0  0  0  0  0  0  0  0  0  0  0  0
   -5.5414   -1.8611    0.0000 C   0  0  0  0  0  0  0  0  0  0  0  0
   -5.2713   -2.6407    0.0000 C   0  0  0  0  0  0  0  0  0  0  0  0
   -4.4612   -2.7966    0.0000 H   0  0  0  0  0  0  0  0  0  0  0  0
   -5.8114   -3.2643    0.0000 C   0  0  0  0  0  0  0  0  0  0  0  0
   -5.5414   -4.0439    0.0000 H   0  0  0  0  0  0  0  0  0  0  0  0
   -6.6216   -3.1084    0.0000 C   0  0  0  0  0  0  0  0  0  0  0  0
   -7.1617   -3.7321    0.0000 H   0  0  0  0  0  0  0  0  0  0  0  0
   -6.8916   -2.3289    0.0000 C   0  0  0  0  0  0  0  0  0  0  0  0
   -7.7017   -2.1730    0.0000 F   0  0  0  0  0  0  0  0  0  0  0  0
   -6.3515   -1.7052    0.0000 C   0  0  0  0  0  0  0  0  0  0  0  0
   -6.6216   -0.9257    0.0000 H   0  0  0  0  0  0  0  0  0  0  0  0
   -4.8928   -0.4197    0.0000 H   0  0  0  0  0  0  0  0  0  0  0  0
   -5.5925   -0.6621    0.0000 H   0  0  0  0  0  0  0  0  0  0  0  0
   -4.2997   -2.2112    0.0000 H   0  0  0  0  0  0  0  0  0  0  0  0
   -3.6000   -1.9688    0.0000 H   0  0  0  0  0  0  0  0  0  0  0  0
   -3.9211    0.0098    0.0000 H   0  0  0  0  0  0  0  0  0  0  0  0
   -2.3009   -0.3020    0.0000 C   0  0  0  0  0  0  0  0  0  0  0  0
   -2.5709    0.4775    0.0000 C   0  0  0  0  0  0  0  0  0  0  0  0
   -3.3810    0.6334    0.0000 C   0  0  0  0  0  0  0  0  0  0  0  0
   -4.1912    0.7893    0.0000 H   0  0  0  0  0  0  0  0  0  0  0  0
   -3.6511    1.4130    0.0000 C   0  0  0  0  0  0  0  0  0  0  0  0
   -4.2747    1.9531    0.0000 H   0  0  0  0  0  0  0  0  0  0  0  0
   -3.1110    2.0366    0.0000 C   0  0  0  0  0  0  0  0  0  0  0  0
   -3.3810    2.8162    0.0000 H   0  0  0  0  0  0  0  0  0  0  0  0
   -2.3009    1.8807    0.0000 N   0  0  0  0  0  0  0  0  0  0  0  0
   -2.0308    1.1012    0.0000 C   0  0  0  0  0  0  0  0  0  0  0  0
   -1.7608    0.3216    0.0000 H   0  0  0  0  0  0  0  0  0  0  0  0
   -1.4907   -0.4579    0.0000 N   0  0  0  0  0  0  0  0  0  0  0  0
   -1.2207   -1.2375    0.0000 C   0  0  0  0  0  0  0  0  0  0  0  0
   -1.7608   -1.8611    0.0000 O   0  0  0  0  0  0  0  0  0  0  0  0
   -0.4105   -1.3934    0.0000 C   0  0  0  0  0  0  0  0  0  0  0  0
   -0.0605   -2.1405    0.0000 C   0  0  0  0  0  0  0  0  0  0  0  0
   -0.4591   -2.8628    0.0000 H   0  0  0  0  0  0  0  0  0  0  0  0
    0.7582   -2.0384    0.0000 O   0  0  0  0  0  0  0  0  0  0  0  0
    0.9141   -1.2283    0.0000 C   0  0  0  0  0  0  0  0  0  0  0  0
    1.6611   -0.8782    0.0000 H   0  0  0  0  0  0  0  0  0  0  0  0
    0.1918   -0.8296    0.0000 N   0  0  0  0  0  0  0  0  0  0  0  0
   -0.9506    0.1657    0.0000 C   0  0  0  0  0  0  0  0  0  0  0  0
   -0.1405    0.0098    0.0000 C   0  0  0  0  0  0  0  0  0  0  0  0
   -0.6669   -0.6254    0.0000 H   0  0  0  0  0  0  0  0  0  0  0  0
    0.3996    0.6334    0.0000 C   0  0  0  0  0  0  0  0  0  0  0  0
    0.9397    1.2571    0.0000 H   0  0  0  0  0  0  0  0  0  0  0  0
    0.1296    1.4130    0.0000 C   0  0  0  0  0  0  0  0  0  0  0  0
   -0.6806    1.5689    0.0000 C   0  0  0  0  0  0  0  0  0  0  0  0
   -0.9506    2.3484    0.0000 C   0  0  0  0  0  0  0  0  0  0  0  0
   -0.4105    2.9721    0.0000 C   0  0  0  0  0  0  0  0  0  0  0  0
    0.3996    2.8162    0.0000 C   0  0  0  0  0  0  0  0  0  0  0  0
    0.9397    3.4398    0.0000 O   0  0  0  0  0  0  0  0  0  0  0  0
    0.6696    2.0366    0.0000 N   0  0  0  0  0  0  0  0  0  0  0  0
    1.4798    1.8807    0.0000 C   0  0  0  0  0  0  0  0  0  0  0  0
    1.7498    1.1012    0.0000 C   0  0  0  0  0  0  0  0  0  0  0  0
    2.5600    0.9452    0.0000 F   0  0  0  0  0  0  0  0  0  0  0  0
    1.2097    0.4775    0.0000 F   0  0  0  0  0  0  0  0  0  0  0  0
    2.2899    1.7248    0.0000 H   0  0  0  0  0  0  0  0  0  0  0  0
    2.2423    2.1956    0.0000 H   0  0  0  0  0  0  0  0  0  0  0  0
    1.6825    2.6804    0.0000 H   0  0  0  0  0  0  0  0  0  0  0  0
   -0.3020    3.7899    0.0000 H   0  0  0  0  0  0  0  0  0  0  0  0
   -1.0017    3.5475    0.0000 H   0  0  0  0  0  0  0  0  0  0  0  0
   -1.6046    2.8514    0.0000 H   0  0  0  0  0  0  0  0  0  0  0  0
   -1.7446    2.1242    0.0000 H   0  0  0  0  0  0  0  0  0  0  0  0
   -1.2207    0.9452    0.0000 C   0  0  0  0  0  0  0  0  0  0  0  0
   -1.4907    1.7248    0.0000 H   0  0  0  0  0  0  0  0  0  0  0  0
   -3.1110   -0.1461    0.0000 H   0  0  0  0  0  0  0  0  0  0  0  0
  1  2  2  0  0  0  0
  2  3  1  0  0  0  0
  3  4  1  0  0  0  0
  4  5  1  0  0  0  0
  5  6  1  0  0  0  0
  6  7  2  0  0  0  0
  7  8  1  0  0  0  0
  7  9  1  0  0  0  0
  9 10  1  0  0  0  0
  9 11  2  0  0  0  0
 11 12  1  0  0  0  0
 11 13  1  0  0  0  0
 13 14  1  0  0  0  0
 13 15  2  0  0  0  0
  6 15  1  0  0  0  0
 15 16  1  0  0  0  0
  5 17  1  0  0  0  0
  5 18  1  0  0  0  0
  4 19  1  0  0  0  0
  4 20  1  0  0  0  0
  3 21  1  0  0  0  0
  2 22  1  0  0  0  0
 22 23  1  0  0  0  0
 23 24  2  0  0  0  0
 24 25  1  0  0  0  0
 24 26  1  0  0  0  0
 26 27  1  0  0  0  0
 26 28  2  0  0  0  0
 28 29  1  0  0  0  0
 28 30  1  0  0  0  0
 30 31  2  0  0  0  0
 23 31  1  0  0  0  0
 31 32  1  0  0  0  0
 22 33  1  0  0  0  0
 33 34  1  0  0  0  0
 34 35  2  0  0  0  0
 34 36  1  0  0  0  0
 36 37  2  0  0  0  0
 37 38  1  0  0  0  0
 37 39  1  0  0  0  0
 39 40  1  0  0  0  0
 40 41  1  0  0  0  0
 40 42  2  0  0  0  0
 36 42  1  0  0  0  0
 33 43  1  0  0  0  0
 43 44  2  0  0  0  0
 44 45  1  0  0  0  0
 44 46  1  0  0  0  0
 46 47  1  0  0  0  0
 46 48  2  0  0  0  0
 48 49  1  0  0  0  0
 49 50  1  0  0  0  0
 50 51  1  0  0  0  0
 51 52  1  0  0  0  0
 52 53  2  0  0  0  0
 52 54  1  0  0  0  0
 48 54  1  0  0  0  0
 54 55  1  0  0  0  0
 55 56  1  0  0  0  0
 56 57  1  0  0  0  0
 56 58  1  0  0  0  0
 56 59  1  0  0  0  0
 55 60  1  0  0  0  0
 55 61  1  0  0  0  0
 51 62  1  0  0  0  0
 51 63  1  0  0  0  0
 50 64  1  0  0  0  0
 50 65  1  0  0  0  0
 49 66  2  0  0  0  0
 43 66  1  0  0  0  0
 66 67  1  0  0  0  0
 22 68  1  0  0  0  0
M  END
> <Potency>
24.4656931654475

> <pIC50>
4.611442475237608

> <Outcome>
Inactive

> <is_active>
0

$$$$

  Mrv1921 08232120312D          

 64 68  0  0  0  0            999 V2000
    8.2207   -4.6940    0.0000 O   0  0  0  0  0  0  0  0  0  0  0  0
    7.9506   -5.4736    0.0000 C   0  0  0  0  0  0  0  0  0  0  0  0
    7.1405   -5.6295    0.0000 N   0  0  0  0  0  0  0  0  0  0  0  0
    6.6004   -5.0058    0.0000 C   0  0  0  0  0  0  0  0  0  0  0  0
    5.7903   -5.1617    0.0000 C   0  0  0  0  0  0  0  0  0  0  0  0
    5.2502   -4.5381    0.0000 C   0  0  0  0  0  0  0  0  0  0  0  0
    4.4400   -4.6940    0.0000 C   0  0  0  0  0  0  0  0  0  0  0  0
    4.1700   -5.4736    0.0000 H   0  0  0  0  0  0  0  0  0  0  0  0
    3.9000   -4.0704    0.0000 C   0  0  0  0  0  0  0  0  0  0  0  0
    3.0898   -4.2263    0.0000 H   0  0  0  0  0  0  0  0  0  0  0  0
    4.1700   -3.2908    0.0000 C   0  0  0  0  0  0  0  0  0  0  0  0
    3.6299   -2.6672    0.0000 H   0  0  0  0  0  0  0  0  0  0  0  0
    4.9801   -3.1349    0.0000 C   0  0  0  0  0  0  0  0  0  0  0  0
    5.2502   -2.3554    0.0000 F   0  0  0  0  0  0  0  0  0  0  0  0
    5.5202   -3.7585    0.0000 C   0  0  0  0  0  0  0  0  0  0  0  0
    6.3304   -3.6026    0.0000 H   0  0  0  0  0  0  0  0  0  0  0  0
    5.1991   -5.7372    0.0000 H   0  0  0  0  0  0  0  0  0  0  0  0
    5.8988   -5.9796    0.0000 H   0  0  0  0  0  0  0  0  0  0  0  0
    7.1916   -4.4304    0.0000 H   0  0  0  0  0  0  0  0  0  0  0  0
    6.4919   -4.1880    0.0000 H   0  0  0  0  0  0  0  0  0  0  0  0
    6.8704   -6.4090    0.0000 H   0  0  0  0  0  0  0  0  0  0  0  0
    8.4907   -6.0972    0.0000 C   0  0  0  0  0  0  0  0  0  0  0  0
    8.2207   -6.8768    0.0000 C   0  0  0  0  0  0  0  0  0  0  0  0
    8.7608   -7.5004    0.0000 C   0  0  0  0  0  0  0  0  0  0  0  0
    9.0477   -6.7269    0.0000 H   0  0  0  0  0  0  0  0  0  0  0  0
    8.4907   -8.2799    0.0000 C   0  0  0  0  0  0  0  0  0  0  0  0
    9.0308   -8.9036    0.0000 H   0  0  0  0  0  0  0  0  0  0  0  0
    7.6806   -8.4359    0.0000 C   0  0  0  0  0  0  0  0  0  0  0  0
    7.4105   -9.2154    0.0000 H   0  0  0  0  0  0  0  0  0  0  0  0
    7.1405   -7.8122    0.0000 N   0  0  0  0  0  0  0  0  0  0  0  0
    7.4105   -7.0327    0.0000 C   0  0  0  0  0  0  0  0  0  0  0  0
    6.6004   -7.1886    0.0000 H   0  0  0  0  0  0  0  0  0  0  0  0
    9.3008   -5.9413    0.0000 N   0  0  0  0  0  0  0  0  0  0  0  0
    9.5709   -5.1617    0.0000 C   0  0  0  0  0  0  0  0  0  0  0  0
    9.0308   -4.5381    0.0000 O   0  0  0  0  0  0  0  0  0  0  0  0
   10.3810   -5.0058    0.0000 C   0  0  0  0  0  0  0  0  0  0  0  0
   10.7311   -4.2588    0.0000 C   0  0  0  0  0  0  0  0  0  0  0  0
   10.3324   -3.5365    0.0000 H   0  0  0  0  0  0  0  0  0  0  0  0
   11.5497   -4.3608    0.0000 O   0  0  0  0  0  0  0  0  0  0  0  0
   11.7056   -5.1710    0.0000 C   0  0  0  0  0  0  0  0  0  0  0  0
   12.4527   -5.5210    0.0000 H   0  0  0  0  0  0  0  0  0  0  0  0
   10.9833   -5.5696    0.0000 N   0  0  0  0  0  0  0  0  0  0  0  0
    9.8409   -6.5649    0.0000 C   0  0  0  0  0  0  0  0  0  0  0  0
   10.6629   -6.4946    0.0000 C   0  0  0  0  0  0  0  0  0  0  0  0
   11.0891   -5.7882    0.0000 H   0  0  0  0  0  0  0  0  0  0  0  0
   10.9839   -7.2546    0.0000 N   0  0  0  0  0  0  0  0  0  0  0  0
   11.7874   -7.4417    0.0000 C   0  0  0  0  0  0  0  0  0  0  0  0
   12.0271   -8.2311    0.0000 C   0  0  0  0  0  0  0  0  0  0  0  0
   12.8306   -8.4181    0.0000 C   0  0  0  0  0  0  0  0  0  0  0  0
   13.3944   -7.8158    0.0000 H   0  0  0  0  0  0  0  0  0  0  0  0
   13.0704   -9.2075    0.0000 C   0  0  0  0  0  0  0  0  0  0  0  0
   13.8739   -9.3946    0.0000 H   0  0  0  0  0  0  0  0  0  0  0  0
   12.5066   -9.8099    0.0000 C   0  0  0  0  0  0  0  0  0  0  0  0
   12.7463  -10.5992    0.0000 H   0  0  0  0  0  0  0  0  0  0  0  0
   11.7031   -9.6228    0.0000 C   0  0  0  0  0  0  0  0  0  0  0  0
   11.1393  -10.2251    0.0000 H   0  0  0  0  0  0  0  0  0  0  0  0
   11.4633   -8.8334    0.0000 C   0  0  0  0  0  0  0  0  0  0  0  0
   10.6598   -8.6463    0.0000 H   0  0  0  0  0  0  0  0  0  0  0  0
   12.5615   -7.1564    0.0000 H   0  0  0  0  0  0  0  0  0  0  0  0
   12.0209   -6.6504    0.0000 H   0  0  0  0  0  0  0  0  0  0  0  0
   10.3602   -7.7947    0.0000 C   0  0  0  0  0  0  0  0  0  0  0  0
    9.7203   -8.3154    0.0000 H   0  0  0  0  0  0  0  0  0  0  0  0
    9.6539   -7.3684    0.0000 N   0  0  0  0  0  0  0  0  0  0  0  0
    7.6806   -6.2531    0.0000 H   0  0  0  0  0  0  0  0  0  0  0  0
  1  2  2  0  0  0  0
  2  3  1  0  0  0  0
  3  4  1  0  0  0  0
  4  5  1  0  0  0  0
  5  6  1  0  0  0  0
  6  7  2  0  0  0  0
  7  8  1  0  0  0  0
  7  9  1  0  0  0  0
  9 10  1  0  0  0  0
  9 11  2  0  0  0  0
 11 12  1  0  0  0  0
 11 13  1  0  0  0  0
 13 14  1  0  0  0  0
 13 15  2  0  0  0  0
  6 15  1  0  0  0  0
 15 16  1  0  0  0  0
  5 17  1  0  0  0  0
  5 18  1  0  0  0  0
  4 19  1  0  0  0  0
  4 20  1  0  0  0  0
  3 21  1  0  0  0  0
  2 22  1  0  0  0  0
 22 23  1  0  0  0  0
 23 24  2  0  0  0  0
 24 25  1  0  0  0  0
 24 26  1  0  0  0  0
 26 27  1  0  0  0  0
 26 28  2  0  0  0  0
 28 29  1  0  0  0  0
 28 30  1  0  0  0  0
 30 31  2  0  0  0  0
 23 31  1  0  0  0  0
 31 32  1  0  0  0  0
 22 33  1  0  0  0  0
 33 34  1  0  0  0  0
 34 35  2  0  0  0  0
 34 36  1  0  0  0  0
 36 37  2  0  0  0  0
 37 38  1  0  0  0  0
 37 39  1  0  0  0  0
 39 40  1  0  0  0  0
 40 41  1  0  0  0  0
 40 42  2  0  0  0  0
 36 42  1  0  0  0  0
 33 43  1  0  0  0  0
 43 44  2  0  0  0  0
 44 45  1  0  0  0  0
 44 46  1  0  0  0  0
 46 47  1  0  0  0  0
 47 48  1  0  0  0  0
 48 49  2  0  0  0  0
 49 50  1  0  0  0  0
 49 51  1  0  0  0  0
 51 52  1  0  0  0  0
 51 53  2  0  0  0  0
 53 54  1  0  0  0  0
 53 55  1  0  0  0  0
 55 56  1  0  0  0  0
 55 57  2  0  0  0  0
 48 57  1  0  0  0  0
 57 58  1  0  0  0  0
 47 59  1  0  0  0  0
 47 60  1  0  0  0  0
 46 61  1  0  0  0  0
 61 62  1  0  0  0  0
 61 63  2  0  0  0  0
 43 63  1  0  0  0  0
 22 64  1  0  0  0  0
M  END
> <Potency>
27.312900042631

> <pIC50>
4.5636321846773615

> <Outcome>
Inactive

> <is_active>
0

$$$$

  Mrv1921 08232120312D          

 56 60  0  0  0  0            999 V2000
    5.2883   -3.6573    0.0000 O   0  0  0  0  0  0  0  0  0  0  0  0
    5.0182   -4.4368    0.0000 C   0  0  0  0  0  0  0  0  0  0  0  0
    4.2081   -4.5927    0.0000 N   0  0  0  0  0  0  0  0  0  0  0  0
    3.6680   -3.9691    0.0000 C   0  0  0  0  0  0  0  0  0  0  0  0
    2.8579   -4.1250    0.0000 C   0  0  0  0  0  0  0  0  0  0  0  0
    2.3178   -3.5014    0.0000 C   0  0  0  0  0  0  0  0  0  0  0  0
    1.5077   -3.6573    0.0000 C   0  0  0  0  0  0  0  0  0  0  0  0
    1.2376   -4.4368    0.0000 H   0  0  0  0  0  0  0  0  0  0  0  0
    0.9676   -3.0336    0.0000 C   0  0  0  0  0  0  0  0  0  0  0  0
    0.1574   -3.1895    0.0000 H   0  0  0  0  0  0  0  0  0  0  0  0
    1.2376   -2.2541    0.0000 C   0  0  0  0  0  0  0  0  0  0  0  0
    0.6975   -1.6304    0.0000 H   0  0  0  0  0  0  0  0  0  0  0  0
    2.0477   -2.0982    0.0000 C   0  0  0  0  0  0  0  0  0  0  0  0
    2.3178   -1.3186    0.0000 F   0  0  0  0  0  0  0  0  0  0  0  0
    2.5878   -2.7218    0.0000 C   0  0  0  0  0  0  0  0  0  0  0  0
    3.3980   -2.5659    0.0000 H   0  0  0  0  0  0  0  0  0  0  0  0
    2.2667   -4.7004    0.0000 H   0  0  0  0  0  0  0  0  0  0  0  0
    2.9664   -4.9428    0.0000 H   0  0  0  0  0  0  0  0  0  0  0  0
    4.2592   -3.3937    0.0000 H   0  0  0  0  0  0  0  0  0  0  0  0
    3.5595   -3.1513    0.0000 H   0  0  0  0  0  0  0  0  0  0  0  0
    3.9381   -5.3723    0.0000 H   0  0  0  0  0  0  0  0  0  0  0  0
    5.5583   -5.0605    0.0000 C   0  0  0  0  0  0  0  0  0  0  0  0
    5.2883   -5.8400    0.0000 C   0  0  0  0  0  0  0  0  0  0  0  0
    5.8284   -6.4637    0.0000 C   0  0  0  0  0  0  0  0  0  0  0  0
    6.0984   -5.6841    0.0000 H   0  0  0  0  0  0  0  0  0  0  0  0
    5.5583   -7.2432    0.0000 C   0  0  0  0  0  0  0  0  0  0  0  0
    6.0984   -7.8668    0.0000 H   0  0  0  0  0  0  0  0  0  0  0  0
    4.7482   -7.3991    0.0000 C   0  0  0  0  0  0  0  0  0  0  0  0
    4.4782   -8.1787    0.0000 H   0  0  0  0  0  0  0  0  0  0  0  0
    4.2081   -6.7755    0.0000 N   0  0  0  0  0  0  0  0  0  0  0  0
    4.4782   -5.9959    0.0000 C   0  0  0  0  0  0  0  0  0  0  0  0
    3.6680   -6.1518    0.0000 H   0  0  0  0  0  0  0  0  0  0  0  0
    6.3685   -4.9046    0.0000 N   0  0  0  0  0  0  0  0  0  0  0  0
    6.6385   -4.1250    0.0000 C   0  0  0  0  0  0  0  0  0  0  0  0
    6.0984   -3.5014    0.0000 O   0  0  0  0  0  0  0  0  0  0  0  0
    7.4486   -3.9691    0.0000 C   0  0  0  0  0  0  0  0  0  0  0  0
    7.7987   -3.2220    0.0000 C   0  0  0  0  0  0  0  0  0  0  0  0
    7.4001   -2.4997    0.0000 H   0  0  0  0  0  0  0  0  0  0  0  0
    8.6174   -3.3241    0.0000 O   0  0  0  0  0  0  0  0  0  0  0  0
    8.7733   -4.1342    0.0000 C   0  0  0  0  0  0  0  0  0  0  0  0
    9.5203   -4.4843    0.0000 H   0  0  0  0  0  0  0  0  0  0  0  0
    8.0510   -4.5329    0.0000 N   0  0  0  0  0  0  0  0  0  0  0  0
    6.9086   -5.5282    0.0000 C   0  0  0  0  0  0  0  0  0  0  0  0
    7.7187   -5.3723    0.0000 C   0  0  0  0  0  0  0  0  0  0  0  0
    7.1923   -4.7371    0.0000 H   0  0  0  0  0  0  0  0  0  0  0  0
    8.2588   -5.9959    0.0000 C   0  0  0  0  0  0  0  0  0  0  0  0
    9.0689   -5.8400    0.0000 H   0  0  0  0  0  0  0  0  0  0  0  0
    7.9887   -6.7755    0.0000 C   0  0  0  0  0  0  0  0  0  0  0  0
    8.3874   -7.4978    0.0000 S   0  0  0  0  0  0  0  0  0  0  0  0
    7.8236   -8.1001    0.0000 C   0  0  0  0  0  0  0  0  0  0  0  0
    7.0765   -7.7500    0.0000 N   0  0  0  0  0  0  0  0  0  0  0  0
    7.1786   -6.9314    0.0000 C   0  0  0  0  0  0  0  0  0  0  0  0
    6.6385   -6.3077    0.0000 C   0  0  0  0  0  0  0  0  0  0  0  0
    7.4486   -6.1518    0.0000 H   0  0  0  0  0  0  0  0  0  0  0  0
    7.9795   -8.9102    0.0000 H   0  0  0  0  0  0  0  0  0  0  0  0
    4.7482   -5.2164    0.0000 H   0  0  0  0  0  0  0  0  0  0  0  0
  1  2  2  0  0  0  0
  2  3  1  0  0  0  0
  3  4  1  0  0  0  0
  4  5  1  0  0  0  0
  5  6  1  0  0  0  0
  6  7  2  0  0  0  0
  7  8  1  0  0  0  0
  7  9  1  0  0  0  0
  9 10  1  0  0  0  0
  9 11  2  0  0  0  0
 11 12  1  0  0  0  0
 11 13  1  0  0  0  0
 13 14  1  0  0  0  0
 13 15  2  0  0  0  0
  6 15  1  0  0  0  0
 15 16  1  0  0  0  0
  5 17  1  0  0  0  0
  5 18  1  0  0  0  0
  4 19  1  0  0  0  0
  4 20  1  0  0  0  0
  3 21  1  0  0  0  0
  2 22  1  0  0  0  0
 22 23  1  0  0  0  0
 23 24  2  0  0  0  0
 24 25  1  0  0  0  0
 24 26  1  0  0  0  0
 26 27  1  0  0  0  0
 26 28  2  0  0  0  0
 28 29  1  0  0  0  0
 28 30  1  0  0  0  0
 30 31  2  0  0  0  0
 23 31  1  0  0  0  0
 31 32  1  0  0  0  0
 22 33  1  0  0  0  0
 33 34  1  0  0  0  0
 34 35  2  0  0  0  0
 34 36  1  0  0  0  0
 36 37  2  0  0  0  0
 37 38  1  0  0  0  0
 37 39  1  0  0  0  0
 39 40  1  0  0  0  0
 40 41  1  0  0  0  0
 40 42  2  0  0  0  0
 36 42  1  0  0  0  0
 33 43  1  0  0  0  0
 43 44  2  0  0  0  0
 44 45  1  0  0  0  0
 44 46  1  0  0  0  0
 46 47  1  0  0  0  0
 46 48  2  0  0  0  0
 48 49  1  0  0  0  0
 49 50  1  0  0  0  0
 50 51  2  0  0  0  0
 51 52  1  0  0  0  0
 48 52  1  0  0  0  0
 52 53  2  0  0  0  0
 43 53  1  0  0  0  0
 53 54  1  0  0  0  0
 50 55  1  0  0  0  0
 22 56  1  0  0  0  0
M  END
> <Potency>
83.960185803809

> <pIC50>
4.07592660899531

> <Outcome>
Inactive

> <is_active>
0

$$$$

  Mrv1921 08232120312D          

 56 59  0  0  0  0            999 V2000
    5.2883   -3.6573    0.0000 O   0  0  0  0  0  0  0  0  0  0  0  0
    5.0182   -4.4368    0.0000 C   0  0  0  0  0  0  0  0  0  0  0  0
    4.2081   -4.5927    0.0000 N   0  0  0  0  0  0  0  0  0  0  0  0
    3.6680   -3.9691    0.0000 C   0  0  0  0  0  0  0  0  0  0  0  0
    2.8579   -4.1250    0.0000 C   0  0  0  0  0  0  0  0  0  0  0  0
    2.3178   -3.5014    0.0000 C   0  0  0  0  0  0  0  0  0  0  0  0
    1.5077   -3.6573    0.0000 C   0  0  0  0  0  0  0  0  0  0  0  0
    1.2376   -4.4368    0.0000 H   0  0  0  0  0  0  0  0  0  0  0  0
    0.9676   -3.0336    0.0000 C   0  0  0  0  0  0  0  0  0  0  0  0
    0.1574   -3.1895    0.0000 H   0  0  0  0  0  0  0  0  0  0  0  0
    1.2376   -2.2541    0.0000 C   0  0  0  0  0  0  0  0  0  0  0  0
    0.6975   -1.6304    0.0000 H   0  0  0  0  0  0  0  0  0  0  0  0
    2.0477   -2.0982    0.0000 C   0  0  0  0  0  0  0  0  0  0  0  0
    2.3178   -1.3186    0.0000 F   0  0  0  0  0  0  0  0  0  0  0  0
    2.5878   -2.7218    0.0000 C   0  0  0  0  0  0  0  0  0  0  0  0
    3.3980   -2.5659    0.0000 H   0  0  0  0  0  0  0  0  0  0  0  0
    2.2667   -4.7004    0.0000 H   0  0  0  0  0  0  0  0  0  0  0  0
    2.9664   -4.9428    0.0000 H   0  0  0  0  0  0  0  0  0  0  0  0
    4.2592   -3.3937    0.0000 H   0  0  0  0  0  0  0  0  0  0  0  0
    3.5595   -3.1513    0.0000 H   0  0  0  0  0  0  0  0  0  0  0  0
    3.9381   -5.3723    0.0000 H   0  0  0  0  0  0  0  0  0  0  0  0
    5.5583   -5.0605    0.0000 C   0  0  0  0  0  0  0  0  0  0  0  0
    5.2883   -5.8400    0.0000 C   0  0  0  0  0  0  0  0  0  0  0  0
    5.8284   -6.4637    0.0000 C   0  0  0  0  0  0  0  0  0  0  0  0
    6.0984   -5.6841    0.0000 H   0  0  0  0  0  0  0  0  0  0  0  0
    5.5583   -7.2432    0.0000 C   0  0  0  0  0  0  0  0  0  0  0  0
    6.0984   -7.8668    0.0000 H   0  0  0  0  0  0  0  0  0  0  0  0
    4.7482   -7.3991    0.0000 C   0  0  0  0  0  0  0  0  0  0  0  0
    4.4782   -8.1787    0.0000 H   0  0  0  0  0  0  0  0  0  0  0  0
    4.2081   -6.7755    0.0000 N   0  0  0  0  0  0  0  0  0  0  0  0
    4.4782   -5.9959    0.0000 C   0  0  0  0  0  0  0  0  0  0  0  0
    3.6680   -6.1518    0.0000 H   0  0  0  0  0  0  0  0  0  0  0  0
    6.3685   -4.9046    0.0000 N   0  0  0  0  0  0  0  0  0  0  0  0
    6.6385   -4.1250    0.0000 C   0  0  0  0  0  0  0  0  0  0  0  0
    6.0984   -3.5014    0.0000 O   0  0  0  0  0  0  0  0  0  0  0  0
    7.4486   -3.9691    0.0000 C   0  0  0  0  0  0  0  0  0  0  0  0
    7.7987   -3.2220    0.0000 C   0  0  0  0  0  0  0  0  0  0  0  0
    7.4001   -2.4997    0.0000 H   0  0  0  0  0  0  0  0  0  0  0  0
    8.6174   -3.3241    0.0000 O   0  0  0  0  0  0  0  0  0  0  0  0
    8.7733   -4.1342    0.0000 C   0  0  0  0  0  0  0  0  0  0  0  0
    9.5203   -4.4843    0.0000 H   0  0  0  0  0  0  0  0  0  0  0  0
    8.0510   -4.5329    0.0000 N   0  0  0  0  0  0  0  0  0  0  0  0
    6.9086   -5.5282    0.0000 C   0  0  0  0  0  0  0  0  0  0  0  0
    7.7187   -5.3723    0.0000 C   0  0  0  0  0  0  0  0  0  0  0  0
    7.1923   -4.7371    0.0000 H   0  0  0  0  0  0  0  0  0  0  0  0
    8.2588   -5.9959    0.0000 C   0  0  0  0  0  0  0  0  0  0  0  0
    9.0689   -5.8400    0.0000 H   0  0  0  0  0  0  0  0  0  0  0  0
    7.9887   -6.7755    0.0000 C   0  0  0  0  0  0  0  0  0  0  0  0
    8.5288   -7.3991    0.0000 C   0  0  0  0  0  0  0  0  0  0  0  0
    9.0689   -8.0228    0.0000 F   0  0  0  0  0  0  0  0  0  0  0  0
    7.9052   -7.9392    0.0000 F   0  0  0  0  0  0  0  0  0  0  0  0
    9.1525   -6.8590    0.0000 F   0  0  0  0  0  0  0  0  0  0  0  0
    7.1786   -6.9314    0.0000 N   0  0  0  0  0  0  0  0  0  0  0  0
    6.6385   -6.3077    0.0000 C   0  0  0  0  0  0  0  0  0  0  0  0
    7.4486   -6.1518    0.0000 H   0  0  0  0  0  0  0  0  0  0  0  0
    4.7482   -5.2164    0.0000 H   0  0  0  0  0  0  0  0  0  0  0  0
  1  2  2  0  0  0  0
  2  3  1  0  0  0  0
  3  4  1  0  0  0  0
  4  5  1  0  0  0  0
  5  6  1  0  0  0  0
  6  7  2  0  0  0  0
  7  8  1  0  0  0  0
  7  9  1  0  0  0  0
  9 10  1  0  0  0  0
  9 11  2  0  0  0  0
 11 12  1  0  0  0  0
 11 13  1  0  0  0  0
 13 14  1  0  0  0  0
 13 15  2  0  0  0  0
  6 15  1  0  0  0  0
 15 16  1  0  0  0  0
  5 17  1  0  0  0  0
  5 18  1  0  0  0  0
  4 19  1  0  0  0  0
  4 20  1  0  0  0  0
  3 21  1  0  0  0  0
  2 22  1  0  0  0  0
 22 23  1  0  0  0  0
 23 24  2  0  0  0  0
 24 25  1  0  0  0  0
 24 26  1  0  0  0  0
 26 27  1  0  0  0  0
 26 28  2  0  0  0  0
 28 29  1  0  0  0  0
 28 30  1  0  0  0  0
 30 31  2  0  0  0  0
 23 31  1  0  0  0  0
 31 32  1  0  0  0  0
 22 33  1  0  0  0  0
 33 34  1  0  0  0  0
 34 35  2  0  0  0  0
 34 36  1  0  0  0  0
 36 37  2  0  0  0  0
 37 38  1  0  0  0  0
 37 39  1  0  0  0  0
 39 40  1  0  0  0  0
 40 41  1  0  0  0  0
 40 42  2  0  0  0  0
 36 42  1  0  0  0  0
 33 43  1  0  0  0  0
 43 44  2  0  0  0  0
 44 45  1  0  0  0  0
 44 46  1  0  0  0  0
 46 47  1  0  0  0  0
 46 48  2  0  0  0  0
 48 49  1  0  0  0  0
 49 50  1  0  0  0  0
 49 51  1  0  0  0  0
 49 52  1  0  0  0  0
 48 53  1  0  0  0  0
 53 54  2  0  0  0  0
 43 54  1  0  0  0  0
 54 55  1  0  0  0  0
 22 56  1  0  0  0  0
M  END
> <Potency>
36.4204777334505

> <pIC50>
4.438654361790944

> <Outcome>
Inactive

> <is_active>
0

$$$$

  Mrv1921 08232120312D          

 62 66  0  0  0  0            999 V2000
    5.2883   -3.6573    0.0000 O   0  0  0  0  0  0  0  0  0  0  0  0
    5.0182   -4.4368    0.0000 C   0  0  0  0  0  0  0  0  0  0  0  0
    4.2081   -4.5927    0.0000 N   0  0  0  0  0  0  0  0  0  0  0  0
    3.6680   -3.9691    0.0000 C   0  0  0  0  0  0  0  0  0  0  0  0
    2.8579   -4.1250    0.0000 C   0  0  0  0  0  0  0  0  0  0  0  0
    2.3178   -3.5014    0.0000 C   0  0  0  0  0  0  0  0  0  0  0  0
    1.5077   -3.6573    0.0000 C   0  0  0  0  0  0  0  0  0  0  0  0
    1.2376   -4.4368    0.0000 H   0  0  0  0  0  0  0  0  0  0  0  0
    0.9676   -3.0336    0.0000 C   0  0  0  0  0  0  0  0  0  0  0  0
    0.1574   -3.1895    0.0000 H   0  0  0  0  0  0  0  0  0  0  0  0
    1.2376   -2.2541    0.0000 C   0  0  0  0  0  0  0  0  0  0  0  0
    0.6975   -1.6304    0.0000 H   0  0  0  0  0  0  0  0  0  0  0  0
    2.0477   -2.0982    0.0000 C   0  0  0  0  0  0  0  0  0  0  0  0
    2.3178   -1.3186    0.0000 F   0  0  0  0  0  0  0  0  0  0  0  0
    2.5878   -2.7218    0.0000 C   0  0  0  0  0  0  0  0  0  0  0  0
    3.3980   -2.5659    0.0000 H   0  0  0  0  0  0  0  0  0  0  0  0
    2.2667   -4.7004    0.0000 H   0  0  0  0  0  0  0  0  0  0  0  0
    2.9664   -4.9428    0.0000 H   0  0  0  0  0  0  0  0  0  0  0  0
    4.2592   -3.3937    0.0000 H   0  0  0  0  0  0  0  0  0  0  0  0
    3.5595   -3.1513    0.0000 H   0  0  0  0  0  0  0  0  0  0  0  0
    3.9381   -5.3723    0.0000 H   0  0  0  0  0  0  0  0  0  0  0  0
    5.5583   -5.0605    0.0000 C   0  0  0  0  0  0  0  0  0  0  0  0
    5.2883   -5.8400    0.0000 C   0  0  0  0  0  0  0  0  0  0  0  0
    5.8284   -6.4637    0.0000 C   0  0  0  0  0  0  0  0  0  0  0  0
    6.0984   -5.6841    0.0000 H   0  0  0  0  0  0  0  0  0  0  0  0
    5.5583   -7.2432    0.0000 C   0  0  0  0  0  0  0  0  0  0  0  0
    6.0984   -7.8668    0.0000 H   0  0  0  0  0  0  0  0  0  0  0  0
    4.7482   -7.3991    0.0000 C   0  0  0  0  0  0  0  0  0  0  0  0
    4.4782   -8.1787    0.0000 H   0  0  0  0  0  0  0  0  0  0  0  0
    4.2081   -6.7755    0.0000 N   0  0  0  0  0  0  0  0  0  0  0  0
    4.4782   -5.9959    0.0000 C   0  0  0  0  0  0  0  0  0  0  0  0
    3.6680   -6.1518    0.0000 H   0  0  0  0  0  0  0  0  0  0  0  0
    6.3685   -4.9046    0.0000 N   0  0  0  0  0  0  0  0  0  0  0  0
    6.6385   -4.1250    0.0000 C   0  0  0  0  0  0  0  0  0  0  0  0
    6.0984   -3.5014    0.0000 O   0  0  0  0  0  0  0  0  0  0  0  0
    7.4486   -3.9691    0.0000 C   0  0  0  0  0  0  0  0  0  0  0  0
    7.7987   -3.2220    0.0000 C   0  0  0  0  0  0  0  0  0  0  0  0
    7.4001   -2.4997    0.0000 H   0  0  0  0  0  0  0  0  0  0  0  0
    8.6174   -3.3241    0.0000 O   0  0  0  0  0  0  0  0  0  0  0  0
    8.7733   -4.1342    0.0000 C   0  0  0  0  0  0  0  0  0  0  0  0
    9.5203   -4.4843    0.0000 H   0  0  0  0  0  0  0  0  0  0  0  0
    8.0510   -4.5329    0.0000 N   0  0  0  0  0  0  0  0  0  0  0  0
    6.9086   -5.5282    0.0000 C   0  0  0  0  0  0  0  0  0  0  0  0
    7.7187   -5.3723    0.0000 C   0  0  0  0  0  0  0  0  0  0  0  0
    7.1923   -4.7371    0.0000 H   0  0  0  0  0  0  0  0  0  0  0  0
    8.2588   -5.9959    0.0000 N   0  0  0  0  0  0  0  0  0  0  0  0
    7.9887   -6.7755    0.0000 C   0  0  0  0  0  0  0  0  0  0  0  0
    8.5288   -7.3991    0.0000 C   0  0  0  0  0  0  0  0  0  0  0  0
    9.3517   -7.4582    0.0000 C   0  0  0  0  0  0  0  0  0  0  0  0
   10.1618   -7.3023    0.0000 H   0  0  0  0  0  0  0  0  0  0  0  0
    9.6217   -6.6786    0.0000 H   0  0  0  0  0  0  0  0  0  0  0  0
    9.2926   -8.2811    0.0000 C   0  0  0  0  0  0  0  0  0  0  0  0
    9.4485   -9.0912    0.0000 H   0  0  0  0  0  0  0  0  0  0  0  0
   10.0722   -8.5511    0.0000 H   0  0  0  0  0  0  0  0  0  0  0  0
    8.4697   -8.2220    0.0000 C   0  0  0  0  0  0  0  0  0  0  0  0
    7.8891   -8.8081    0.0000 H   0  0  0  0  0  0  0  0  0  0  0  0
    8.5096   -9.0460    0.0000 H   0  0  0  0  0  0  0  0  0  0  0  0
    7.7460   -7.6594    0.0000 H   0  0  0  0  0  0  0  0  0  0  0  0
    7.1786   -6.9314    0.0000 N   0  0  0  0  0  0  0  0  0  0  0  0
    6.6385   -6.3077    0.0000 C   0  0  0  0  0  0  0  0  0  0  0  0
    7.4486   -6.1518    0.0000 H   0  0  0  0  0  0  0  0  0  0  0  0
    4.7482   -5.2164    0.0000 H   0  0  0  0  0  0  0  0  0  0  0  0
  1  2  2  0  0  0  0
  2  3  1  0  0  0  0
  3  4  1  0  0  0  0
  4  5  1  0  0  0  0
  5  6  1  0  0  0  0
  6  7  2  0  0  0  0
  7  8  1  0  0  0  0
  7  9  1  0  0  0  0
  9 10  1  0  0  0  0
  9 11  2  0  0  0  0
 11 12  1  0  0  0  0
 11 13  1  0  0  0  0
 13 14  1  0  0  0  0
 13 15  2  0  0  0  0
  6 15  1  0  0  0  0
 15 16  1  0  0  0  0
  5 17  1  0  0  0  0
  5 18  1  0  0  0  0
  4 19  1  0  0  0  0
  4 20  1  0  0  0  0
  3 21  1  0  0  0  0
  2 22  1  0  0  0  0
 22 23  1  0  0  0  0
 23 24  2  0  0  0  0
 24 25  1  0  0  0  0
 24 26  1  0  0  0  0
 26 27  1  0  0  0  0
 26 28  2  0  0  0  0
 28 29  1  0  0  0  0
 28 30  1  0  0  0  0
 30 31  2  0  0  0  0
 23 31  1  0  0  0  0
 31 32  1  0  0  0  0
 22 33  1  0  0  0  0
 33 34  1  0  0  0  0
 34 35  2  0  0  0  0
 34 36  1  0  0  0  0
 36 37  2  0  0  0  0
 37 38  1  0  0  0  0
 37 39  1  0  0  0  0
 39 40  1  0  0  0  0
 40 41  1  0  0  0  0
 40 42  2  0  0  0  0
 36 42  1  0  0  0  0
 33 43  1  0  0  0  0
 43 44  2  0  0  0  0
 44 45  1  0  0  0  0
 44 46  1  0  0  0  0
 46 47  2  0  0  0  0
 47 48  1  0  0  0  0
 48 49  1  0  0  0  0
 49 50  1  0  0  0  0
 49 51  1  0  0  0  0
 49 52  1  0  0  0  0
 52 53  1  0  0  0  0
 52 54  1  0  0  0  0
 52 55  1  0  0  0  0
 48 55  1  0  0  0  0
 55 56  1  0  0  0  0
 55 57  1  0  0  0  0
 48 58  1  0  0  0  0
 47 59  1  0  0  0  0
 59 60  2  0  0  0  0
 43 60  1  0  0  0  0
 60 61  1  0  0  0  0
 22 62  1  0  0  0  0
M  END
> <Potency>
69.1091170425532

> <pIC50>
4.160464655663596

> <Outcome>
Inactive

> <is_active>
0

$$$$

  Mrv1921 08232120312D          

 61 64  0  0  0  0            999 V2000
   -3.2405    1.2668    0.0000 C   0  0  0  0  0  0  0  0  0  0  0  0
   -2.7004    0.6432    0.0000 C   0  0  0  0  0  0  0  0  0  0  0  0
   -1.8903    0.7991    0.0000 O   0  0  0  0  0  0  0  0  0  0  0  0
   -1.3502    0.1755    0.0000 C   0  0  0  0  0  0  0  0  0  0  0  0
   -0.5401    0.3314    0.0000 C   0  0  0  0  0  0  0  0  0  0  0  0
   -0.2700    1.1109    0.0000 H   0  0  0  0  0  0  0  0  0  0  0  0
    0.0000   -0.2923    0.0000 C   0  0  0  0  0  0  0  0  0  0  0  0
    0.5401   -0.9159    0.0000 H   0  0  0  0  0  0  0  0  0  0  0  0
   -0.2700   -1.0718    0.0000 C   0  0  0  0  0  0  0  0  0  0  0  0
    0.2700   -1.6954    0.0000 N   0  0  0  0  0  0  0  0  0  0  0  0
    0.0000   -2.4750    0.0000 C   0  0  0  0  0  0  0  0  0  0  0  0
    0.5401   -3.0986    0.0000 O   0  0  0  0  0  0  0  0  0  0  0  0
   -0.8101   -2.6309    0.0000 C   0  0  0  0  0  0  0  0  0  0  0  0
   -1.1602   -3.3780    0.0000 C   0  0  0  0  0  0  0  0  0  0  0  0
   -0.7616   -4.1003    0.0000 H   0  0  0  0  0  0  0  0  0  0  0  0
   -1.9788   -3.2759    0.0000 O   0  0  0  0  0  0  0  0  0  0  0  0
   -2.1348   -2.4658    0.0000 C   0  0  0  0  0  0  0  0  0  0  0  0
   -2.8818   -2.1157    0.0000 H   0  0  0  0  0  0  0  0  0  0  0  0
   -1.4125   -2.0671    0.0000 N   0  0  0  0  0  0  0  0  0  0  0  0
    1.0802   -1.5395    0.0000 C   0  0  0  0  0  0  0  0  0  0  0  0
    1.6203   -2.1632    0.0000 C   0  0  0  0  0  0  0  0  0  0  0  0
    1.3502   -2.9427    0.0000 O   0  0  0  0  0  0  0  0  0  0  0  0
    2.4304   -2.0073    0.0000 N   0  0  0  0  0  0  0  0  0  0  0  0
    2.9705   -2.6309    0.0000 C   0  0  0  0  0  0  0  0  0  0  0  0
    3.7806   -2.4750    0.0000 C   0  0  0  0  0  0  0  0  0  0  0  0
    4.3207   -3.0986    0.0000 C   0  0  0  0  0  0  0  0  0  0  0  0
    5.1308   -2.9427    0.0000 C   0  0  0  0  0  0  0  0  0  0  0  0
    5.4009   -2.1632    0.0000 H   0  0  0  0  0  0  0  0  0  0  0  0
    5.6709   -3.5664    0.0000 C   0  0  0  0  0  0  0  0  0  0  0  0
    6.4811   -3.4105    0.0000 H   0  0  0  0  0  0  0  0  0  0  0  0
    5.4009   -4.3459    0.0000 C   0  0  0  0  0  0  0  0  0  0  0  0
    5.9410   -4.9696    0.0000 H   0  0  0  0  0  0  0  0  0  0  0  0
    4.5908   -4.5018    0.0000 C   0  0  0  0  0  0  0  0  0  0  0  0
    4.3207   -5.2814    0.0000 F   0  0  0  0  0  0  0  0  0  0  0  0
    4.0507   -3.8782    0.0000 C   0  0  0  0  0  0  0  0  0  0  0  0
    3.2405   -4.0341    0.0000 H   0  0  0  0  0  0  0  0  0  0  0  0
    4.3718   -1.8996    0.0000 H   0  0  0  0  0  0  0  0  0  0  0  0
    3.6721   -1.6572    0.0000 H   0  0  0  0  0  0  0  0  0  0  0  0
    2.3793   -3.2063    0.0000 H   0  0  0  0  0  0  0  0  0  0  0  0
    3.0790   -3.4487    0.0000 H   0  0  0  0  0  0  0  0  0  0  0  0
    2.7004   -1.2277    0.0000 H   0  0  0  0  0  0  0  0  0  0  0  0
    1.3502   -0.7600    0.0000 C   0  0  0  0  0  0  0  0  0  0  0  0
    0.8101   -0.1363    0.0000 C   0  0  0  0  0  0  0  0  0  0  0  0
    0.2700    0.4873    0.0000 H   0  0  0  0  0  0  0  0  0  0  0  0
    1.0802    0.6432    0.0000 C   0  0  0  0  0  0  0  0  0  0  0  0
    0.9243    1.4533    0.0000 H   0  0  0  0  0  0  0  0  0  0  0  0
    1.8903    0.7991    0.0000 C   0  0  0  0  0  0  0  0  0  0  0  0
    2.1604    1.5787    0.0000 H   0  0  0  0  0  0  0  0  0  0  0  0
    2.4304    0.1755    0.0000 N   0  0  0  0  0  0  0  0  0  0  0  0
    2.1604   -0.6041    0.0000 C   0  0  0  0  0  0  0  0  0  0  0  0
    1.8903   -1.3836    0.0000 H   0  0  0  0  0  0  0  0  0  0  0  0
    0.8101   -2.3191    0.0000 H   0  0  0  0  0  0  0  0  0  0  0  0
   -1.0802   -1.2277    0.0000 C   0  0  0  0  0  0  0  0  0  0  0  0
   -1.8935   -1.3660    0.0000 H   0  0  0  0  0  0  0  0  0  0  0  0
   -1.6203   -0.6041    0.0000 C   0  0  0  0  0  0  0  0  0  0  0  0
   -2.3983   -0.3298    0.0000 H   0  0  0  0  0  0  0  0  0  0  0  0
   -3.2916    0.0678    0.0000 H   0  0  0  0  0  0  0  0  0  0  0  0
   -2.5919   -0.1746    0.0000 H   0  0  0  0  0  0  0  0  0  0  0  0
   -2.6169    1.8069    0.0000 H   0  0  0  0  0  0  0  0  0  0  0  0
   -3.7806    1.8905    0.0000 H   0  0  0  0  0  0  0  0  0  0  0  0
   -3.8642    0.7268    0.0000 H   0  0  0  0  0  0  0  0  0  0  0  0
  1  2  1  0  0  0  0
  2  3  1  0  0  0  0
  3  4  1  0  0  0  0
  4  5  2  0  0  0  0
  5  6  1  0  0  0  0
  5  7  1  0  0  0  0
  7  8  1  0  0  0  0
  7  9  2  0  0  0  0
  9 10  1  0  0  0  0
 10 11  1  0  0  0  0
 11 12  2  0  0  0  0
 11 13  1  0  0  0  0
 13 14  2  0  0  0  0
 14 15  1  0  0  0  0
 14 16  1  0  0  0  0
 16 17  1  0  0  0  0
 17 18  1  0  0  0  0
 17 19  2  0  0  0  0
 13 19  1  0  0  0  0
 10 20  1  0  0  0  0
 20 21  1  0  0  0  0
 21 22  2  0  0  0  0
 21 23  1  0  0  0  0
 23 24  1  0  0  0  0
 24 25  1  0  0  0  0
 25 26  1  0  0  0  0
 26 27  2  0  0  0  0
 27 28  1  0  0  0  0
 27 29  1  0  0  0  0
 29 30  1  0  0  0  0
 29 31  2  0  0  0  0
 31 32  1  0  0  0  0
 31 33  1  0  0  0  0
 33 34  1  0  0  0  0
 33 35  2  0  0  0  0
 26 35  1  0  0  0  0
 35 36  1  0  0  0  0
 25 37  1  0  0  0  0
 25 38  1  0  0  0  0
 24 39  1  0  0  0  0
 24 40  1  0  0  0  0
 23 41  1  0  0  0  0
 20 42  1  0  0  0  0
 42 43  2  0  0  0  0
 43 44  1  0  0  0  0
 43 45  1  0  0  0  0
 45 46  1  0  0  0  0
 45 47  2  0  0  0  0
 47 48  1  0  0  0  0
 47 49  1  0  0  0  0
 49 50  2  0  0  0  0
 42 50  1  0  0  0  0
 50 51  1  0  0  0  0
 20 52  1  0  0  0  0
  9 53  1  0  0  0  0
 53 54  1  0  0  0  0
 53 55  2  0  0  0  0
  4 55  1  0  0  0  0
 55 56  1  0  0  0  0
  2 57  1  0  0  0  0
  2 58  1  0  0  0  0
  1 59  1  0  0  0  0
  1 60  1  0  0  0  0
  1 61  1  0  0  0  0
M  END
> <Potency>
15.4629986497337

> <pIC50>
4.8107062820379465

> <Outcome>
Inactive

> <is_active>
0

$$$$

  Mrv1921 08232120312D          

 43 46  0  0  0  0            999 V2000
    5.0993    1.5067    0.0000 C   0  0  0  0  0  0  0  0  0  0  0  0
    5.0993    0.6817    0.0000 N   0  0  0  0  0  0  0  0  0  0  0  0
    4.3848    0.2692    0.0000 C   0  0  0  0  0  0  0  0  0  0  0  0
    3.6704    0.6817    0.0000 O   0  0  0  0  0  0  0  0  0  0  0  0
    4.3848   -0.5558    0.0000 C   0  0  0  0  0  0  0  0  0  0  0  0
    3.5612   -0.6037    0.0000 H   0  0  0  0  0  0  0  0  0  0  0  0
    3.9315   -1.2450    0.0000 H   0  0  0  0  0  0  0  0  0  0  0  0
    5.0993   -0.9683    0.0000 C   0  0  0  0  0  0  0  0  0  0  0  0
    4.5690   -1.6002    0.0000 O   0  0  0  0  0  0  0  0  0  0  0  0
    4.7184   -2.4116    0.0000 H   0  0  0  0  0  0  0  0  0  0  0  0
    5.6296   -1.6002    0.0000 C   0  0  0  0  0  0  0  0  0  0  0  0
    6.4421   -1.4570    0.0000 O   0  0  0  0  0  0  0  0  0  0  0  0
    5.3474   -2.3755    0.0000 N   0  0  0  0  0  0  0  0  0  0  0  0
    5.8777   -3.0075    0.0000 C   0  0  0  0  0  0  0  0  0  0  0  0
    6.6902   -2.8642    0.0000 C   0  0  0  0  0  0  0  0  0  0  0  0
    6.9724   -2.0890    0.0000 H   0  0  0  0  0  0  0  0  0  0  0  0
    7.2205   -3.4962    0.0000 N   0  0  0  0  0  0  0  0  0  0  0  0
    6.9383   -4.2715    0.0000 C   0  0  0  0  0  0  0  0  0  0  0  0
    7.4686   -4.9034    0.0000 H   0  0  0  0  0  0  0  0  0  0  0  0
    6.1259   -4.4147    0.0000 C   0  0  0  0  0  0  0  0  0  0  0  0
    5.8437   -5.1900    0.0000 C   0  0  0  0  0  0  0  0  0  0  0  0
    5.0312   -5.3332    0.0000 C   0  0  0  0  0  0  0  0  0  0  0  0
    4.5009   -4.7012    0.0000 C   0  0  0  0  0  0  0  0  0  0  0  0
    4.7831   -3.9260    0.0000 C   0  0  0  0  0  0  0  0  0  0  0  0
    4.2528   -3.2940    0.0000 H   0  0  0  0  0  0  0  0  0  0  0  0
    5.5956   -3.7827    0.0000 C   0  0  0  0  0  0  0  0  0  0  0  0
    3.6885   -4.8445    0.0000 H   0  0  0  0  0  0  0  0  0  0  0  0
    4.7491   -6.1085    0.0000 H   0  0  0  0  0  0  0  0  0  0  0  0
    6.3740   -5.8219    0.0000 H   0  0  0  0  0  0  0  0  0  0  0  0
    4.8550   -1.7135    0.0000 H   0  0  0  0  0  0  0  0  0  0  0  0
    5.8138   -0.5558    0.0000 C   0  0  0  0  0  0  0  0  0  0  0  0
    6.5282   -0.9683    0.0000 C   0  0  0  0  0  0  0  0  0  0  0  0
    7.2427   -0.5558    0.0000 C   0  0  0  0  0  0  0  0  0  0  0  0
    7.9572   -0.9683    0.0000 Cl  0  0  0  0  0  0  0  0  0  0  0  0
    7.2427    0.2692    0.0000 C   0  0  0  0  0  0  0  0  0  0  0  0
    6.5282    0.6817    0.0000 C   0  0  0  0  0  0  0  0  0  0  0  0
    6.5282    1.5067    0.0000 H   0  0  0  0  0  0  0  0  0  0  0  0
    5.8138    0.2692    0.0000 C   0  0  0  0  0  0  0  0  0  0  0  0
    7.9572    0.6817    0.0000 H   0  0  0  0  0  0  0  0  0  0  0  0
    7.2040   -1.4415    0.0000 H   0  0  0  0  0  0  0  0  0  0  0  0
    5.9243    1.5067    0.0000 H   0  0  0  0  0  0  0  0  0  0  0  0
    5.0993    2.3317    0.0000 H   0  0  0  0  0  0  0  0  0  0  0  0
    4.2743    1.5067    0.0000 H   0  0  0  0  0  0  0  0  0  0  0  0
  1  2  1  0  0  0  0
  2  3  1  0  0  0  0
  3  4  2  0  0  0  0
  3  5  1  0  0  0  0
  5  6  1  0  0  0  0
  5  7  1  0  0  0  0
  5  8  1  0  0  0  0
  8  9  1  0  0  0  0
  9 10  1  0  0  0  0
  8 11  1  0  0  0  0
 11 12  2  0  0  0  0
 11 13  1  0  0  0  0
 13 14  1  0  0  0  0
 14 15  2  0  0  0  0
 15 16  1  0  0  0  0
 15 17  1  0  0  0  0
 17 18  2  0  0  0  0
 18 19  1  0  0  0  0
 18 20  1  0  0  0  0
 20 21  2  0  0  0  0
 21 22  1  0  0  0  0
 22 23  2  0  0  0  0
 23 24  1  0  0  0  0
 24 25  1  0  0  0  0
 24 26  2  0  0  0  0
 14 26  1  0  0  0  0
 20 26  1  0  0  0  0
 23 27  1  0  0  0  0
 22 28  1  0  0  0  0
 21 29  1  0  0  0  0
 13 30  1  0  0  0  0
  8 31  1  0  0  0  0
 31 32  2  0  0  0  0
 32 33  1  0  0  0  0
 33 34  1  0  0  0  0
 33 35  2  0  0  0  0
 35 36  1  0  0  0  0
 36 37  1  0  0  0  0
 36 38  2  0  0  0  0
  2 38  1  0  0  0  0
 31 38  1  0  0  0  0
 35 39  1  0  0  0  0
 32 40  1  0  0  0  0
  1 41  1  0  0  0  0
  1 42  1  0  0  0  0
  1 43  1  0  0  0  0
M  END
> <Potency>
20.7301185120813

> <pIC50>
4.683398215079519

> <Outcome>
Inactive

> <is_active>
0

$$$$

  Mrv1921 08232120312D          

 52 55  0  0  0  0            999 V2000
    1.9605   -7.7120    0.0000 C   0  0  0  0  0  0  0  0  0  0  0  0
    2.4454   -7.0445    0.0000 N   0  0  0  0  0  0  0  0  0  0  0  0
    2.1904   -6.2599    0.0000 N   0  0  0  0  0  0  0  0  0  0  0  0
    2.8579   -5.7750    0.0000 C   0  0  0  0  0  0  0  0  0  0  0  0
    2.8579   -4.9500    0.0000 C   0  0  0  0  0  0  0  0  0  0  0  0
    3.5724   -4.5375    0.0000 O   0  0  0  0  0  0  0  0  0  0  0  0
    2.1434   -4.5375    0.0000 N   0  0  0  0  0  0  0  0  0  0  0  0
    2.1434   -3.7125    0.0000 C   0  0  0  0  0  0  0  0  0  0  0  0
    2.9684   -3.7125    0.0000 C   0  0  0  0  0  0  0  0  0  0  0  0
    2.9684   -4.5375    0.0000 H   0  0  0  0  0  0  0  0  0  0  0  0
    3.7934   -3.7125    0.0000 H   0  0  0  0  0  0  0  0  0  0  0  0
    2.9684   -2.8875    0.0000 H   0  0  0  0  0  0  0  0  0  0  0  0
    2.1434   -2.8875    0.0000 C   0  0  0  0  0  0  0  0  0  0  0  0
    2.8579   -2.4750    0.0000 O   0  0  0  0  0  0  0  0  0  0  0  0
    1.4289   -2.4750    0.0000 N   0  0  0  0  0  0  0  0  0  0  0  0
    1.4289   -1.6500    0.0000 C   0  0  0  0  0  0  0  0  0  0  0  0
    0.7145   -1.2375    0.0000 C   0  0  0  0  0  0  0  0  0  0  0  0
   -0.1103   -1.2162    0.0000 H   0  0  0  0  0  0  0  0  0  0  0  0
    0.7145   -0.4125    0.0000 N   0  0  0  0  0  0  0  0  0  0  0  0
    1.4289    0.0000    0.0000 C   0  0  0  0  0  0  0  0  0  0  0  0
    1.4289    0.8250    0.0000 H   0  0  0  0  0  0  0  0  0  0  0  0
    2.1434   -0.4125    0.0000 C   0  0  0  0  0  0  0  0  0  0  0  0
    2.8579    0.0000    0.0000 C   0  0  0  0  0  0  0  0  0  0  0  0
    3.5724   -0.4125    0.0000 C   0  0  0  0  0  0  0  0  0  0  0  0
    3.5724   -1.2375    0.0000 C   0  0  0  0  0  0  0  0  0  0  0  0
    2.8579   -1.6500    0.0000 C   0  0  0  0  0  0  0  0  0  0  0  0
    2.1434   -2.0625    0.0000 H   0  0  0  0  0  0  0  0  0  0  0  0
    2.1434   -1.2375    0.0000 C   0  0  0  0  0  0  0  0  0  0  0  0
    4.2868   -1.6500    0.0000 H   0  0  0  0  0  0  0  0  0  0  0  0
    4.2868   -0.0000    0.0000 H   0  0  0  0  0  0  0  0  0  0  0  0
    2.8579    0.8250    0.0000 H   0  0  0  0  0  0  0  0  0  0  0  0
    0.6667   -2.1593    0.0000 H   0  0  0  0  0  0  0  0  0  0  0  0
    1.3184   -3.7125    0.0000 C   0  0  0  0  0  0  0  0  0  0  0  0
    0.9059   -4.4270    0.0000 C   0  0  0  0  0  0  0  0  0  0  0  0
    0.5902   -5.1892    0.0000 H   0  0  0  0  0  0  0  0  0  0  0  0
    0.0809   -4.4270    0.0000 C   0  0  0  0  0  0  0  0  0  0  0  0
   -0.6197   -4.8626    0.0000 H   0  0  0  0  0  0  0  0  0  0  0  0
   -0.3316   -3.7125    0.0000 C   0  0  0  0  0  0  0  0  0  0  0  0
   -1.1566   -3.7125    0.0000 Cl  0  0  0  0  0  0  0  0  0  0  0  0
    0.0809   -2.9980    0.0000 C   0  0  0  0  0  0  0  0  0  0  0  0
   -0.3316   -2.2836    0.0000 Cl  0  0  0  0  0  0  0  0  0  0  0  0
    0.9059   -2.9980    0.0000 C   0  0  0  0  0  0  0  0  0  0  0  0
    0.4934   -3.7125    0.0000 H   0  0  0  0  0  0  0  0  0  0  0  0
    1.4289   -4.9500    0.0000 H   0  0  0  0  0  0  0  0  0  0  0  0
    3.5253   -6.2599    0.0000 C   0  0  0  0  0  0  0  0  0  0  0  0
    4.3099   -6.0050    0.0000 H   0  0  0  0  0  0  0  0  0  0  0  0
    3.2704   -7.0445    0.0000 C   0  0  0  0  0  0  0  0  0  0  0  0
    3.7553   -7.7120    0.0000 C   0  0  0  0  0  0  0  0  0  0  0  0
    4.2402   -8.3794    0.0000 N   0  0  0  0  0  0  0  0  0  0  0  0
    1.2930   -7.2271    0.0000 H   0  0  0  0  0  0  0  0  0  0  0  0
    1.4755   -8.3794    0.0000 H   0  0  0  0  0  0  0  0  0  0  0  0
    2.6279   -8.1969    0.0000 H   0  0  0  0  0  0  0  0  0  0  0  0
  1  2  1  0  0  0  0
  2  3  1  0  0  0  0
  3  4  2  0  0  0  0
  4  5  1  0  0  0  0
  5  6  2  0  0  0  0
  5  7  1  0  0  0  0
  7  8  1  0  0  0  0
  8  9  1  0  0  0  0
  9 10  1  0  0  0  0
  9 11  1  0  0  0  0
  9 12  1  0  0  0  0
  8 13  1  0  0  0  0
 13 14  2  0  0  0  0
 13 15  1  0  0  0  0
 15 16  1  0  0  0  0
 16 17  2  0  0  0  0
 17 18  1  0  0  0  0
 17 19  1  0  0  0  0
 19 20  2  0  0  0  0
 20 21  1  0  0  0  0
 20 22  1  0  0  0  0
 22 23  2  0  0  0  0
 23 24  1  0  0  0  0
 24 25  2  0  0  0  0
 25 26  1  0  0  0  0
 26 27  1  0  0  0  0
 26 28  2  0  0  0  0
 16 28  1  0  0  0  0
 22 28  1  0  0  0  0
 25 29  1  0  0  0  0
 24 30  1  0  0  0  0
 23 31  1  0  0  0  0
 15 32  1  0  0  0  0
  8 33  1  0  0  0  0
 33 34  2  0  0  0  0
 34 35  1  0  0  0  0
 34 36  1  0  0  0  0
 36 37  1  0  0  0  0
 36 38  2  0  0  0  0
 38 39  1  0  0  0  0
 38 40  1  0  0  0  0
 40 41  1  0  0  0  0
 40 42  2  0  0  0  0
 33 42  1  0  0  0  0
 42 43  1  0  0  0  0
  7 44  1  0  0  0  0
  4 45  1  0  0  0  0
 45 46  1  0  0  0  0
 45 47  2  0  0  0  0
  2 47  1  0  0  0  0
 47 48  1  0  0  0  0
 48 49  3  0  0  0  0
  1 50  1  0  0  0  0
  1 51  1  0  0  0  0
  1 52  1  0  0  0  0
M  END
> <Potency>
10.3447053694596

> <pIC50>
4.985281874088634

> <Outcome>
Inactive

> <is_active>
0

$$$$

  Mrv1921 08232120312D          

 59 62  0  0  0  0            999 V2000
   -0.1105   -3.7125    0.0000 C   0  0  0  0  0  0  0  0  0  0  0  0
    0.7145   -3.7125    0.0000 C   0  0  0  0  0  0  0  0  0  0  0  0
    0.7145   -4.5375    0.0000 N   0  0  0  0  0  0  0  0  0  0  0  0
    0.0000   -4.9500    0.0000 C   0  0  0  0  0  0  0  0  0  0  0  0
   -0.7145   -4.5375    0.0000 O   0  0  0  0  0  0  0  0  0  0  0  0
    0.0000   -5.7750    0.0000 C   0  0  0  0  0  0  0  0  0  0  0  0
   -0.7145   -6.1875    0.0000 O   0  0  0  0  0  0  0  0  0  0  0  0
   -0.7145   -7.0125    0.0000 C   0  0  0  0  0  0  0  0  0  0  0  0
    0.0000   -7.4250    0.0000 C   0  0  0  0  0  0  0  0  0  0  0  0
    0.7145   -7.0125    0.0000 H   0  0  0  0  0  0  0  0  0  0  0  0
    0.0000   -8.2500    0.0000 C   0  0  0  0  0  0  0  0  0  0  0  0
    0.7145   -8.6625    0.0000 H   0  0  0  0  0  0  0  0  0  0  0  0
   -0.7145   -8.6625    0.0000 C   0  0  0  0  0  0  0  0  0  0  0  0
   -0.7145   -9.4875    0.0000 C   0  0  0  0  0  0  0  0  0  0  0  0
   -1.4289   -9.9000    0.0000 N   0  0  0  0  0  0  0  0  0  0  0  0
   -2.1434   -9.4875    0.0000 H   0  0  0  0  0  0  0  0  0  0  0  0
   -1.4289  -10.7250    0.0000 H   0  0  0  0  0  0  0  0  0  0  0  0
    0.0000   -9.9000    0.0000 O   0  0  0  0  0  0  0  0  0  0  0  0
   -1.4289   -8.2500    0.0000 C   0  0  0  0  0  0  0  0  0  0  0  0
   -2.1434   -8.6625    0.0000 H   0  0  0  0  0  0  0  0  0  0  0  0
   -1.4289   -7.4250    0.0000 C   0  0  0  0  0  0  0  0  0  0  0  0
   -2.1434   -7.0125    0.0000 H   0  0  0  0  0  0  0  0  0  0  0  0
    0.4533   -6.4643    0.0000 H   0  0  0  0  0  0  0  0  0  0  0  0
    0.8236   -5.8230    0.0000 H   0  0  0  0  0  0  0  0  0  0  0  0
    1.4289   -4.9500    0.0000 H   0  0  0  0  0  0  0  0  0  0  0  0
    0.7145   -2.8875    0.0000 C   0  0  0  0  0  0  0  0  0  0  0  0
    0.0000   -2.4750    0.0000 O   0  0  0  0  0  0  0  0  0  0  0  0
    1.4289   -2.4750    0.0000 N   0  0  0  0  0  0  0  0  0  0  0  0
    1.4289   -1.6500    0.0000 C   0  0  0  0  0  0  0  0  0  0  0  0
    0.7145   -1.2375    0.0000 C   0  0  0  0  0  0  0  0  0  0  0  0
    0.0000   -1.6500    0.0000 H   0  0  0  0  0  0  0  0  0  0  0  0
    0.7145   -0.4125    0.0000 N   0  0  0  0  0  0  0  0  0  0  0  0
    1.4289    0.0000    0.0000 C   0  0  0  0  0  0  0  0  0  0  0  0
    1.4289    0.8250    0.0000 H   0  0  0  0  0  0  0  0  0  0  0  0
    2.1434   -0.4125    0.0000 C   0  0  0  0  0  0  0  0  0  0  0  0
    2.8579    0.0000    0.0000 C   0  0  0  0  0  0  0  0  0  0  0  0
    3.5724   -0.4125    0.0000 C   0  0  0  0  0  0  0  0  0  0  0  0
    3.5724   -1.2375    0.0000 C   0  0  0  0  0  0  0  0  0  0  0  0
    2.8579   -1.6500    0.0000 C   0  0  0  0  0  0  0  0  0  0  0  0
    3.3155   -2.3365    0.0000 H   0  0  0  0  0  0  0  0  0  0  0  0
    2.1434   -1.2375    0.0000 C   0  0  0  0  0  0  0  0  0  0  0  0
    4.2868   -1.6500    0.0000 H   0  0  0  0  0  0  0  0  0  0  0  0
    4.2868   -0.0000    0.0000 H   0  0  0  0  0  0  0  0  0  0  0  0
    2.8579    0.8250    0.0000 H   0  0  0  0  0  0  0  0  0  0  0  0
    2.1911   -2.1593    0.0000 H   0  0  0  0  0  0  0  0  0  0  0  0
    1.5395   -3.7125    0.0000 C   0  0  0  0  0  0  0  0  0  0  0  0
    1.9520   -2.9980    0.0000 C   0  0  0  0  0  0  0  0  0  0  0  0
    2.3645   -3.7125    0.0000 H   0  0  0  0  0  0  0  0  0  0  0  0
    2.7770   -2.9980    0.0000 C   0  0  0  0  0  0  0  0  0  0  0  0
    2.4227   -2.2529    0.0000 H   0  0  0  0  0  0  0  0  0  0  0  0
    3.1895   -3.7125    0.0000 C   0  0  0  0  0  0  0  0  0  0  0  0
    4.0145   -3.7125    0.0000 Cl  0  0  0  0  0  0  0  0  0  0  0  0
    2.7770   -4.4270    0.0000 C   0  0  0  0  0  0  0  0  0  0  0  0
    3.1895   -5.1414    0.0000 Cl  0  0  0  0  0  0  0  0  0  0  0  0
    1.9520   -4.4270    0.0000 C   0  0  0  0  0  0  0  0  0  0  0  0
    2.2677   -5.1892    0.0000 H   0  0  0  0  0  0  0  0  0  0  0  0
   -0.1105   -2.8875    0.0000 H   0  0  0  0  0  0  0  0  0  0  0  0
   -0.9355   -3.7125    0.0000 H   0  0  0  0  0  0  0  0  0  0  0  0
   -0.1105   -4.5375    0.0000 H   0  0  0  0  0  0  0  0  0  0  0  0
  1  2  1  0  0  0  0
  2  3  1  0  0  0  0
  3  4  1  0  0  0  0
  4  5  2  0  0  0  0
  4  6  1  0  0  0  0
  6  7  1  0  0  0  0
  7  8  1  0  0  0  0
  8  9  2  0  0  0  0
  9 10  1  0  0  0  0
  9 11  1  0  0  0  0
 11 12  1  0  0  0  0
 11 13  2  0  0  0  0
 13 14  1  0  0  0  0
 14 15  1  0  0  0  0
 15 16  1  0  0  0  0
 15 17  1  0  0  0  0
 14 18  2  0  0  0  0
 13 19  1  0  0  0  0
 19 20  1  0  0  0  0
 19 21  2  0  0  0  0
  8 21  1  0  0  0  0
 21 22  1  0  0  0  0
  6 23  1  0  0  0  0
  6 24  1  0  0  0  0
  3 25  1  0  0  0  0
  2 26  1  0  0  0  0
 26 27  2  0  0  0  0
 26 28  1  0  0  0  0
 28 29  1  0  0  0  0
 29 30  2  0  0  0  0
 30 31  1  0  0  0  0
 30 32  1  0  0  0  0
 32 33  2  0  0  0  0
 33 34  1  0  0  0  0
 33 35  1  0  0  0  0
 35 36  2  0  0  0  0
 36 37  1  0  0  0  0
 37 38  2  0  0  0  0
 38 39  1  0  0  0  0
 39 40  1  0  0  0  0
 39 41  2  0  0  0  0
 29 41  1  0  0  0  0
 35 41  1  0  0  0  0
 38 42  1  0  0  0  0
 37 43  1  0  0  0  0
 36 44  1  0  0  0  0
 28 45  1  0  0  0  0
  2 46  1  0  0  0  0
 46 47  2  0  0  0  0
 47 48  1  0  0  0  0
 47 49  1  0  0  0  0
 49 50  1  0  0  0  0
 49 51  2  0  0  0  0
 51 52  1  0  0  0  0
 51 53  1  0  0  0  0
 53 54  1  0  0  0  0
 53 55  2  0  0  0  0
 46 55  1  0  0  0  0
 55 56  1  0  0  0  0
  1 57  1  0  0  0  0
  1 58  1  0  0  0  0
  1 59  1  0  0  0  0
M  END
> <Potency>
12.2665191077669

> <pIC50>
4.911278660317995

> <Outcome>
Inactive

> <is_active>
0

$$$$

  Mrv1921 08232120312D          

 38 40  0  0  0  0            999 V2000
    2.8579   -0.8250    0.0000 O   0  0  0  0  0  0  0  0  0  0  0  0
    3.5724   -0.4125    0.0000 C   0  0  0  0  0  0  0  0  0  0  0  0
    3.5724    0.4125    0.0000 N   0  0  0  0  0  0  0  0  0  0  0  0
    2.8579    0.8250    0.0000 C   0  0  0  0  0  0  0  0  0  0  0  0
    2.1434    0.4125    0.0000 C   0  0  0  0  0  0  0  0  0  0  0  0
    2.1434   -0.4125    0.0000 H   0  0  0  0  0  0  0  0  0  0  0  0
    1.4289    0.8250    0.0000 N   0  0  0  0  0  0  0  0  0  0  0  0
    1.4289    1.6500    0.0000 C   0  0  0  0  0  0  0  0  0  0  0  0
    0.7145    2.0625    0.0000 H   0  0  0  0  0  0  0  0  0  0  0  0
    2.1434    2.0625    0.0000 C   0  0  0  0  0  0  0  0  0  0  0  0
    2.1434    2.8875    0.0000 C   0  0  0  0  0  0  0  0  0  0  0  0
    2.8579    3.3000    0.0000 C   0  0  0  0  0  0  0  0  0  0  0  0
    3.5724    2.8875    0.0000 C   0  0  0  0  0  0  0  0  0  0  0  0
    3.5724    2.0625    0.0000 C   0  0  0  0  0  0  0  0  0  0  0  0
    4.2868    1.6500    0.0000 H   0  0  0  0  0  0  0  0  0  0  0  0
    2.8579    1.6500    0.0000 C   0  0  0  0  0  0  0  0  0  0  0  0
    4.2868    3.3000    0.0000 H   0  0  0  0  0  0  0  0  0  0  0  0
    2.8579    4.1250    0.0000 H   0  0  0  0  0  0  0  0  0  0  0  0
    1.4289    3.3000    0.0000 H   0  0  0  0  0  0  0  0  0  0  0  0
    4.2868    0.8250    0.0000 H   0  0  0  0  0  0  0  0  0  0  0  0
    4.2868   -0.8250    0.0000 C   0  0  0  0  0  0  0  0  0  0  0  0
    5.0013   -0.4125    0.0000 C   0  0  0  0  0  0  0  0  0  0  0  0
    5.7158   -0.8250    0.0000 O   0  0  0  0  0  0  0  0  0  0  0  0
    6.1590   -1.5208    0.0000 H   0  0  0  0  0  0  0  0  0  0  0  0
    5.6333    0.1178    0.0000 H   0  0  0  0  0  0  0  0  0  0  0  0
    5.1446    0.4000    0.0000 H   0  0  0  0  0  0  0  0  0  0  0  0
    4.2868   -1.6500    0.0000 C   0  0  0  0  0  0  0  0  0  0  0  0
    5.0013   -2.0625    0.0000 C   0  0  0  0  0  0  0  0  0  0  0  0
    5.7158   -1.6500    0.0000 H   0  0  0  0  0  0  0  0  0  0  0  0
    5.0013   -2.8875    0.0000 C   0  0  0  0  0  0  0  0  0  0  0  0
    5.7158   -3.3000    0.0000 H   0  0  0  0  0  0  0  0  0  0  0  0
    4.2868   -3.3000    0.0000 C   0  0  0  0  0  0  0  0  0  0  0  0
    4.2868   -4.1250    0.0000 Cl  0  0  0  0  0  0  0  0  0  0  0  0
    3.5724   -2.8875    0.0000 C   0  0  0  0  0  0  0  0  0  0  0  0
    2.8579   -3.3000    0.0000 Cl  0  0  0  0  0  0  0  0  0  0  0  0
    3.5724   -2.0625    0.0000 C   0  0  0  0  0  0  0  0  0  0  0  0
    2.8579   -1.6500    0.0000 H   0  0  0  0  0  0  0  0  0  0  0  0
    4.2868    0.0000    0.0000 H   0  0  0  0  0  0  0  0  0  0  0  0
  1  2  2  0  0  0  0
  2  3  1  0  0  0  0
  3  4  1  0  0  0  0
  4  5  2  0  0  0  0
  5  6  1  0  0  0  0
  5  7  1  0  0  0  0
  7  8  2  0  0  0  0
  8  9  1  0  0  0  0
  8 10  1  0  0  0  0
 10 11  2  0  0  0  0
 11 12  1  0  0  0  0
 12 13  2  0  0  0  0
 13 14  1  0  0  0  0
 14 15  1  0  0  0  0
 14 16  2  0  0  0  0
  4 16  1  0  0  0  0
 10 16  1  0  0  0  0
 13 17  1  0  0  0  0
 12 18  1  0  0  0  0
 11 19  1  0  0  0  0
  3 20  1  0  0  0  0
  2 21  1  0  0  0  0
 21 22  1  0  0  0  0
 22 23  1  0  0  0  0
 23 24  1  0  0  0  0
 22 25  1  0  0  0  0
 22 26  1  0  0  0  0
 21 27  1  0  0  0  0
 27 28  2  0  0  0  0
 28 29  1  0  0  0  0
 28 30  1  0  0  0  0
 30 31  1  0  0  0  0
 30 32  2  0  0  0  0
 32 33  1  0  0  0  0
 32 34  1  0  0  0  0
 34 35  1  0  0  0  0
 34 36  2  0  0  0  0
 27 36  1  0  0  0  0
 36 37  1  0  0  0  0
 21 38  1  0  0  0  0
M  END
> <Potency>
19.3084171320908

> <pIC50>
4.7142533274103995

> <Outcome>
Inactive

> <is_active>
0

$$$$

  Mrv1921 08232120312D          

 39 42  0  0  0  0            999 V2000
    5.1706    0.7541    0.0000 C   0  0  0  0  0  0  0  0  0  0  0  0
    5.4255   -0.0305    0.0000 N   0  0  0  0  0  0  0  0  0  0  0  0
    4.9406   -0.6979    0.0000 C   0  0  0  0  0  0  0  0  0  0  0  0
    4.1156   -0.6979    0.0000 H   0  0  0  0  0  0  0  0  0  0  0  0
    5.4255   -1.3654    0.0000 N   0  0  0  0  0  0  0  0  0  0  0  0
    6.2102   -1.1104    0.0000 C   0  0  0  0  0  0  0  0  0  0  0  0
    6.9246   -1.5229    0.0000 C   0  0  0  0  0  0  0  0  0  0  0  0
    7.6391   -1.1104    0.0000 N   0  0  0  0  0  0  0  0  0  0  0  0
    7.6391   -0.2854    0.0000 C   0  0  0  0  0  0  0  0  0  0  0  0
    6.9246    0.1271    0.0000 C   0  0  0  0  0  0  0  0  0  0  0  0
    6.9246    0.9521    0.0000 N   0  0  0  0  0  0  0  0  0  0  0  0
    7.6391    1.3646    0.0000 C   0  0  0  0  0  0  0  0  0  0  0  0
    8.3536    0.9521    0.0000 O   0  0  0  0  0  0  0  0  0  0  0  0
    7.6391    2.1896    0.0000 C   0  0  0  0  0  0  0  0  0  0  0  0
    6.9246    2.6021    0.0000 C   0  0  0  0  0  0  0  0  0  0  0  0
    6.1010    2.5541    0.0000 H   0  0  0  0  0  0  0  0  0  0  0  0
    6.4713    1.9128    0.0000 H   0  0  0  0  0  0  0  0  0  0  0  0
    6.9246    3.4271    0.0000 C   0  0  0  0  0  0  0  0  0  0  0  0
    6.4713    4.1163    0.0000 H   0  0  0  0  0  0  0  0  0  0  0  0
    6.1010    3.4750    0.0000 H   0  0  0  0  0  0  0  0  0  0  0  0
    7.6391    3.8396    0.0000 O   0  0  0  0  0  0  0  0  0  0  0  0
    8.3536    3.4271    0.0000 C   0  0  0  0  0  0  0  0  0  0  0  0
    9.0681    3.8396    0.0000 C   0  0  0  0  0  0  0  0  0  0  0  0
    9.7825    3.4271    0.0000 C   0  0  0  0  0  0  0  0  0  0  0  0
    9.7825    2.6021    0.0000 C   0  0  0  0  0  0  0  0  0  0  0  0
   10.4970    2.1896    0.0000 Cl  0  0  0  0  0  0  0  0  0  0  0  0
    9.0681    2.1896    0.0000 C   0  0  0  0  0  0  0  0  0  0  0  0
    9.4806    1.4751    0.0000 H   0  0  0  0  0  0  0  0  0  0  0  0
    8.3536    2.6021    0.0000 C   0  0  0  0  0  0  0  0  0  0  0  0
   10.4970    3.8396    0.0000 H   0  0  0  0  0  0  0  0  0  0  0  0
    9.0681    4.6646    0.0000 H   0  0  0  0  0  0  0  0  0  0  0  0
    8.3536    1.7771    0.0000 H   0  0  0  0  0  0  0  0  0  0  0  0
    6.2102    1.3646    0.0000 H   0  0  0  0  0  0  0  0  0  0  0  0
    6.2102   -0.2854    0.0000 C   0  0  0  0  0  0  0  0  0  0  0  0
    8.3536    0.1271    0.0000 H   0  0  0  0  0  0  0  0  0  0  0  0
    6.9246   -2.3479    0.0000 H   0  0  0  0  0  0  0  0  0  0  0  0
    5.9552    1.0091    0.0000 H   0  0  0  0  0  0  0  0  0  0  0  0
    4.9157    1.5387    0.0000 H   0  0  0  0  0  0  0  0  0  0  0  0
    4.3860    0.4992    0.0000 H   0  0  0  0  0  0  0  0  0  0  0  0
  1  2  1  0  0  0  0
  2  3  1  0  0  0  0
  3  4  1  0  0  0  0
  3  5  2  0  0  0  0
  5  6  1  0  0  0  0
  6  7  1  0  0  0  0
  7  8  2  0  0  0  0
  8  9  1  0  0  0  0
  9 10  2  0  0  0  0
 10 11  1  0  0  0  0
 11 12  1  0  0  0  0
 12 13  2  0  0  0  0
 12 14  1  0  0  0  0
 14 15  1  0  0  0  0
 15 16  1  0  0  0  0
 15 17  1  0  0  0  0
 15 18  1  0  0  0  0
 18 19  1  0  0  0  0
 18 20  1  0  0  0  0
 18 21  1  0  0  0  0
 21 22  1  0  0  0  0
 22 23  2  0  0  0  0
 23 24  1  0  0  0  0
 24 25  2  0  0  0  0
 25 26  1  0  0  0  0
 25 27  1  0  0  0  0
 27 28  1  0  0  0  0
 27 29  2  0  0  0  0
 14 29  1  0  0  0  0
 22 29  1  0  0  0  0
 24 30  1  0  0  0  0
 23 31  1  0  0  0  0
 14 32  1  0  0  0  0
 11 33  1  0  0  0  0
 10 34  1  0  0  0  0
  2 34  1  0  0  0  0
  6 34  2  0  0  0  0
  9 35  1  0  0  0  0
  7 36  1  0  0  0  0
  1 37  1  0  0  0  0
  1 38  1  0  0  0  0
  1 39  1  0  0  0  0
M  END
> <Potency>
13.0449641871548

> <pIC50>
4.884557108847577

> <Outcome>
Inactive

> <is_active>
0

$$$$

  Mrv1921 08232120312D          

 34 36  0  0  0  0            999 V2000
    0.0000   -2.4750    0.0000 O   0  0  0  0  0  0  0  0  0  0  0  0
    0.7145   -2.8875    0.0000 C   0  0  0  0  0  0  0  0  0  0  0  0
    0.7145   -3.7125    0.0000 C   0  0  0  0  0  0  0  0  0  0  0  0
    0.0000   -4.1250    0.0000 C   0  0  0  0  0  0  0  0  0  0  0  0
    0.0000   -4.9500    0.0000 C   0  0  0  0  0  0  0  0  0  0  0  0
    0.7145   -5.3625    0.0000 H   0  0  0  0  0  0  0  0  0  0  0  0
   -0.7145   -5.3625    0.0000 C   0  0  0  0  0  0  0  0  0  0  0  0
   -0.7145   -6.1875    0.0000 H   0  0  0  0  0  0  0  0  0  0  0  0
   -1.4289   -4.9500    0.0000 C   0  0  0  0  0  0  0  0  0  0  0  0
   -2.1434   -5.3625    0.0000 H   0  0  0  0  0  0  0  0  0  0  0  0
   -1.4289   -4.1250    0.0000 C   0  0  0  0  0  0  0  0  0  0  0  0
   -2.1434   -3.7125    0.0000 H   0  0  0  0  0  0  0  0  0  0  0  0
   -0.7145   -3.7125    0.0000 C   0  0  0  0  0  0  0  0  0  0  0  0
   -0.7145   -2.8875    0.0000 H   0  0  0  0  0  0  0  0  0  0  0  0
    1.1678   -4.4018    0.0000 H   0  0  0  0  0  0  0  0  0  0  0  0
    1.5381   -3.7605    0.0000 H   0  0  0  0  0  0  0  0  0  0  0  0
    1.4289   -2.4750    0.0000 N   0  0  0  0  0  0  0  0  0  0  0  0
    1.4289   -1.6500    0.0000 C   0  0  0  0  0  0  0  0  0  0  0  0
    0.7145   -1.2375    0.0000 C   0  0  0  0  0  0  0  0  0  0  0  0
    0.0000   -1.6500    0.0000 H   0  0  0  0  0  0  0  0  0  0  0  0
    0.7145   -0.4125    0.0000 N   0  0  0  0  0  0  0  0  0  0  0  0
    1.4289    0.0000    0.0000 C   0  0  0  0  0  0  0  0  0  0  0  0
    1.4289    0.8250    0.0000 H   0  0  0  0  0  0  0  0  0  0  0  0
    2.1434   -0.4125    0.0000 C   0  0  0  0  0  0  0  0  0  0  0  0
    2.8579    0.0000    0.0000 C   0  0  0  0  0  0  0  0  0  0  0  0
    3.5724   -0.4125    0.0000 C   0  0  0  0  0  0  0  0  0  0  0  0
    3.5724   -1.2375    0.0000 C   0  0  0  0  0  0  0  0  0  0  0  0
    2.8579   -1.6500    0.0000 C   0  0  0  0  0  0  0  0  0  0  0  0
    2.8579   -2.4750    0.0000 H   0  0  0  0  0  0  0  0  0  0  0  0
    2.1434   -1.2375    0.0000 C   0  0  0  0  0  0  0  0  0  0  0  0
    4.2868   -1.6500    0.0000 H   0  0  0  0  0  0  0  0  0  0  0  0
    4.2868   -0.0000    0.0000 H   0  0  0  0  0  0  0  0  0  0  0  0
    2.8579    0.8250    0.0000 H   0  0  0  0  0  0  0  0  0  0  0  0
    2.1434   -2.8875    0.0000 H   0  0  0  0  0  0  0  0  0  0  0  0
  1  2  2  0  0  0  0
  2  3  1  0  0  0  0
  3  4  1  0  0  0  0
  4  5  2  0  0  0  0
  5  6  1  0  0  0  0
  5  7  1  0  0  0  0
  7  8  1  0  0  0  0
  7  9  2  0  0  0  0
  9 10  1  0  0  0  0
  9 11  1  0  0  0  0
 11 12  1  0  0  0  0
 11 13  2  0  0  0  0
  4 13  1  0  0  0  0
 13 14  1  0  0  0  0
  3 15  1  0  0  0  0
  3 16  1  0  0  0  0
  2 17  1  0  0  0  0
 17 18  1  0  0  0  0
 18 19  2  0  0  0  0
 19 20  1  0  0  0  0
 19 21  1  0  0  0  0
 21 22  2  0  0  0  0
 22 23  1  0  0  0  0
 22 24  1  0  0  0  0
 24 25  2  0  0  0  0
 25 26  1  0  0  0  0
 26 27  2  0  0  0  0
 27 28  1  0  0  0  0
 28 29  1  0  0  0  0
 28 30  2  0  0  0  0
 18 30  1  0  0  0  0
 24 30  1  0  0  0  0
 27 31  1  0  0  0  0
 26 32  1  0  0  0  0
 25 33  1  0  0  0  0
 17 34  1  0  0  0  0
M  END
> <Potency>
13.9998917346762

> <pIC50>
4.853875322837085

> <Outcome>
Inactive

> <is_active>
0

$$$$

  Mrv1921 08232120312D          

 34 36  0  0  0  0            999 V2000
    0.0000   -2.4750    0.0000 O   0  0  0  0  0  0  0  0  0  0  0  0
    0.7145   -2.8875    0.0000 C   0  0  0  0  0  0  0  0  0  0  0  0
    0.7145   -3.7125    0.0000 C   0  0  0  0  0  0  0  0  0  0  0  0
    0.0000   -4.1250    0.0000 C   0  0  0  0  0  0  0  0  0  0  0  0
    0.0000   -4.9500    0.0000 C   0  0  0  0  0  0  0  0  0  0  0  0
    0.7145   -5.3625    0.0000 H   0  0  0  0  0  0  0  0  0  0  0  0
   -0.7145   -5.3625    0.0000 C   0  0  0  0  0  0  0  0  0  0  0  0
   -0.7145   -6.1875    0.0000 H   0  0  0  0  0  0  0  0  0  0  0  0
   -1.4289   -4.9500    0.0000 C   0  0  0  0  0  0  0  0  0  0  0  0
   -2.1434   -5.3625    0.0000 Cl  0  0  0  0  0  0  0  0  0  0  0  0
   -1.4289   -4.1250    0.0000 C   0  0  0  0  0  0  0  0  0  0  0  0
   -2.1434   -3.7125    0.0000 H   0  0  0  0  0  0  0  0  0  0  0  0
   -0.7145   -3.7125    0.0000 C   0  0  0  0  0  0  0  0  0  0  0  0
   -0.7145   -2.8875    0.0000 H   0  0  0  0  0  0  0  0  0  0  0  0
    1.1678   -4.4018    0.0000 H   0  0  0  0  0  0  0  0  0  0  0  0
    1.5381   -3.7605    0.0000 H   0  0  0  0  0  0  0  0  0  0  0  0
    1.4289   -2.4750    0.0000 N   0  0  0  0  0  0  0  0  0  0  0  0
    1.4289   -1.6500    0.0000 C   0  0  0  0  0  0  0  0  0  0  0  0
    0.7145   -1.2375    0.0000 C   0  0  0  0  0  0  0  0  0  0  0  0
    0.0000   -1.6500    0.0000 H   0  0  0  0  0  0  0  0  0  0  0  0
    0.7145   -0.4125    0.0000 N   0  0  0  0  0  0  0  0  0  0  0  0
    1.4289    0.0000    0.0000 C   0  0  0  0  0  0  0  0  0  0  0  0
    1.4289    0.8250    0.0000 H   0  0  0  0  0  0  0  0  0  0  0  0
    2.1434   -0.4125    0.0000 C   0  0  0  0  0  0  0  0  0  0  0  0
    2.8579    0.0000    0.0000 C   0  0  0  0  0  0  0  0  0  0  0  0
    3.5724   -0.4125    0.0000 C   0  0  0  0  0  0  0  0  0  0  0  0
    3.5724   -1.2375    0.0000 C   0  0  0  0  0  0  0  0  0  0  0  0
    2.8579   -1.6500    0.0000 C   0  0  0  0  0  0  0  0  0  0  0  0
    2.8579   -2.4750    0.0000 H   0  0  0  0  0  0  0  0  0  0  0  0
    2.1434   -1.2375    0.0000 C   0  0  0  0  0  0  0  0  0  0  0  0
    4.2868   -1.6500    0.0000 H   0  0  0  0  0  0  0  0  0  0  0  0
    4.2868   -0.0000    0.0000 H   0  0  0  0  0  0  0  0  0  0  0  0
    2.8579    0.8250    0.0000 H   0  0  0  0  0  0  0  0  0  0  0  0
    2.1434   -2.8875    0.0000 H   0  0  0  0  0  0  0  0  0  0  0  0
  1  2  2  0  0  0  0
  2  3  1  0  0  0  0
  3  4  1  0  0  0  0
  4  5  2  0  0  0  0
  5  6  1  0  0  0  0
  5  7  1  0  0  0  0
  7  8  1  0  0  0  0
  7  9  2  0  0  0  0
  9 10  1  0  0  0  0
  9 11  1  0  0  0  0
 11 12  1  0  0  0  0
 11 13  2  0  0  0  0
  4 13  1  0  0  0  0
 13 14  1  0  0  0  0
  3 15  1  0  0  0  0
  3 16  1  0  0  0  0
  2 17  1  0  0  0  0
 17 18  1  0  0  0  0
 18 19  2  0  0  0  0
 19 20  1  0  0  0  0
 19 21  1  0  0  0  0
 21 22  2  0  0  0  0
 22 23  1  0  0  0  0
 22 24  1  0  0  0  0
 24 25  2  0  0  0  0
 25 26  1  0  0  0  0
 26 27  2  0  0  0  0
 27 28  1  0  0  0  0
 28 29  1  0  0  0  0
 28 30  2  0  0  0  0
 18 30  1  0  0  0  0
 24 30  1  0  0  0  0
 27 31  1  0  0  0  0
 26 32  1  0  0  0  0
 25 33  1  0  0  0  0
 17 34  1  0  0  0  0
M  END
> <Potency>
23.6888055533983

> <pIC50>
4.6254568368984215

> <Outcome>
Inactive

> <is_active>
0

$$$$

  Mrv1921 08232120312D          

 37 39  0  0  0  0            999 V2000
   -2.1434   -5.3625    0.0000 C   0  0  0  0  0  0  0  0  0  0  0  0
   -1.4289   -4.9500    0.0000 C   0  0  0  0  0  0  0  0  0  0  0  0
   -1.4289   -4.1250    0.0000 C   0  0  0  0  0  0  0  0  0  0  0  0
   -2.1434   -3.7125    0.0000 H   0  0  0  0  0  0  0  0  0  0  0  0
   -0.7145   -3.7125    0.0000 C   0  0  0  0  0  0  0  0  0  0  0  0
   -0.7145   -2.8875    0.0000 H   0  0  0  0  0  0  0  0  0  0  0  0
    0.0000   -4.1250    0.0000 C   0  0  0  0  0  0  0  0  0  0  0  0
    0.7145   -3.7125    0.0000 C   0  0  0  0  0  0  0  0  0  0  0  0
    0.7145   -2.8875    0.0000 C   0  0  0  0  0  0  0  0  0  0  0  0
    0.0000   -2.4750    0.0000 O   0  0  0  0  0  0  0  0  0  0  0  0
    1.4289   -2.4750    0.0000 N   0  0  0  0  0  0  0  0  0  0  0  0
    1.4289   -1.6500    0.0000 C   0  0  0  0  0  0  0  0  0  0  0  0
    0.7145   -1.2375    0.0000 C   0  0  0  0  0  0  0  0  0  0  0  0
    0.0000   -1.6500    0.0000 H   0  0  0  0  0  0  0  0  0  0  0  0
    0.7145   -0.4125    0.0000 N   0  0  0  0  0  0  0  0  0  0  0  0
    1.4289    0.0000    0.0000 C   0  0  0  0  0  0  0  0  0  0  0  0
    1.4289    0.8250    0.0000 H   0  0  0  0  0  0  0  0  0  0  0  0
    2.1434   -0.4125    0.0000 C   0  0  0  0  0  0  0  0  0  0  0  0
    2.8579    0.0000    0.0000 C   0  0  0  0  0  0  0  0  0  0  0  0
    3.5724   -0.4125    0.0000 C   0  0  0  0  0  0  0  0  0  0  0  0
    3.5724   -1.2375    0.0000 C   0  0  0  0  0  0  0  0  0  0  0  0
    2.8579   -1.6500    0.0000 C   0  0  0  0  0  0  0  0  0  0  0  0
    2.8579   -2.4750    0.0000 H   0  0  0  0  0  0  0  0  0  0  0  0
    2.1434   -1.2375    0.0000 C   0  0  0  0  0  0  0  0  0  0  0  0
    4.2868   -1.6500    0.0000 H   0  0  0  0  0  0  0  0  0  0  0  0
    4.2868   -0.0000    0.0000 H   0  0  0  0  0  0  0  0  0  0  0  0
    2.8579    0.8250    0.0000 H   0  0  0  0  0  0  0  0  0  0  0  0
    2.1434   -2.8875    0.0000 H   0  0  0  0  0  0  0  0  0  0  0  0
    1.1678   -4.4018    0.0000 H   0  0  0  0  0  0  0  0  0  0  0  0
    1.5381   -3.7605    0.0000 H   0  0  0  0  0  0  0  0  0  0  0  0
    0.0000   -4.9500    0.0000 C   0  0  0  0  0  0  0  0  0  0  0  0
    0.7145   -5.3625    0.0000 H   0  0  0  0  0  0  0  0  0  0  0  0
   -0.7145   -5.3625    0.0000 C   0  0  0  0  0  0  0  0  0  0  0  0
   -0.7145   -6.1875    0.0000 H   0  0  0  0  0  0  0  0  0  0  0  0
   -2.5559   -4.6480    0.0000 H   0  0  0  0  0  0  0  0  0  0  0  0
   -2.8579   -5.7750    0.0000 H   0  0  0  0  0  0  0  0  0  0  0  0
   -1.7309   -6.0770    0.0000 H   0  0  0  0  0  0  0  0  0  0  0  0
  1  2  1  0  0  0  0
  2  3  2  0  0  0  0
  3  4  1  0  0  0  0
  3  5  1  0  0  0  0
  5  6  1  0  0  0  0
  5  7  2  0  0  0  0
  7  8  1  0  0  0  0
  8  9  1  0  0  0  0
  9 10  2  0  0  0  0
  9 11  1  0  0  0  0
 11 12  1  0  0  0  0
 12 13  2  0  0  0  0
 13 14  1  0  0  0  0
 13 15  1  0  0  0  0
 15 16  2  0  0  0  0
 16 17  1  0  0  0  0
 16 18  1  0  0  0  0
 18 19  2  0  0  0  0
 19 20  1  0  0  0  0
 20 21  2  0  0  0  0
 21 22  1  0  0  0  0
 22 23  1  0  0  0  0
 22 24  2  0  0  0  0
 12 24  1  0  0  0  0
 18 24  1  0  0  0  0
 21 25  1  0  0  0  0
 20 26  1  0  0  0  0
 19 27  1  0  0  0  0
 11 28  1  0  0  0  0
  8 29  1  0  0  0  0
  8 30  1  0  0  0  0
  7 31  1  0  0  0  0
 31 32  1  0  0  0  0
 31 33  2  0  0  0  0
  2 33  1  0  0  0  0
 33 34  1  0  0  0  0
  1 35  1  0  0  0  0
  1 36  1  0  0  0  0
  1 37  1  0  0  0  0
M  END
> <Potency>
58.3563005554756

> <pIC50>
4.233912247609085

> <Outcome>
Inactive

> <is_active>
0

$$$$

  Mrv1921 08232120312D          

 38 40  0  0  0  0            999 V2000
   -2.1434   -6.1875    0.0000 C   0  0  0  0  0  0  0  0  0  0  0  0
   -2.1434   -5.3625    0.0000 O   0  0  0  0  0  0  0  0  0  0  0  0
   -1.4289   -4.9500    0.0000 C   0  0  0  0  0  0  0  0  0  0  0  0
   -1.4289   -4.1250    0.0000 C   0  0  0  0  0  0  0  0  0  0  0  0
   -2.1434   -3.7125    0.0000 H   0  0  0  0  0  0  0  0  0  0  0  0
   -0.7145   -3.7125    0.0000 C   0  0  0  0  0  0  0  0  0  0  0  0
   -0.7145   -2.8875    0.0000 H   0  0  0  0  0  0  0  0  0  0  0  0
    0.0000   -4.1250    0.0000 C   0  0  0  0  0  0  0  0  0  0  0  0
    0.7145   -3.7125    0.0000 C   0  0  0  0  0  0  0  0  0  0  0  0
    0.7145   -2.8875    0.0000 C   0  0  0  0  0  0  0  0  0  0  0  0
    0.0000   -2.4750    0.0000 O   0  0  0  0  0  0  0  0  0  0  0  0
    1.4289   -2.4750    0.0000 N   0  0  0  0  0  0  0  0  0  0  0  0
    1.4289   -1.6500    0.0000 C   0  0  0  0  0  0  0  0  0  0  0  0
    0.7145   -1.2375    0.0000 C   0  0  0  0  0  0  0  0  0  0  0  0
    0.0000   -1.6500    0.0000 H   0  0  0  0  0  0  0  0  0  0  0  0
    0.7145   -0.4125    0.0000 N   0  0  0  0  0  0  0  0  0  0  0  0
    1.4289    0.0000    0.0000 C   0  0  0  0  0  0  0  0  0  0  0  0
    1.4289    0.8250    0.0000 H   0  0  0  0  0  0  0  0  0  0  0  0
    2.1434   -0.4125    0.0000 C   0  0  0  0  0  0  0  0  0  0  0  0
    2.8579    0.0000    0.0000 C   0  0  0  0  0  0  0  0  0  0  0  0
    3.5724   -0.4125    0.0000 C   0  0  0  0  0  0  0  0  0  0  0  0
    3.5724   -1.2375    0.0000 C   0  0  0  0  0  0  0  0  0  0  0  0
    2.8579   -1.6500    0.0000 C   0  0  0  0  0  0  0  0  0  0  0  0
    2.8579   -2.4750    0.0000 H   0  0  0  0  0  0  0  0  0  0  0  0
    2.1434   -1.2375    0.0000 C   0  0  0  0  0  0  0  0  0  0  0  0
    4.2868   -1.6500    0.0000 H   0  0  0  0  0  0  0  0  0  0  0  0
    4.2868   -0.0000    0.0000 H   0  0  0  0  0  0  0  0  0  0  0  0
    2.8579    0.8250    0.0000 H   0  0  0  0  0  0  0  0  0  0  0  0
    2.1434   -2.8875    0.0000 H   0  0  0  0  0  0  0  0  0  0  0  0
    1.1678   -4.4018    0.0000 H   0  0  0  0  0  0  0  0  0  0  0  0
    1.5381   -3.7605    0.0000 H   0  0  0  0  0  0  0  0  0  0  0  0
    0.0000   -4.9500    0.0000 C   0  0  0  0  0  0  0  0  0  0  0  0
    0.7145   -5.3625    0.0000 H   0  0  0  0  0  0  0  0  0  0  0  0
   -0.7145   -5.3625    0.0000 C   0  0  0  0  0  0  0  0  0  0  0  0
   -0.7145   -6.1875    0.0000 H   0  0  0  0  0  0  0  0  0  0  0  0
   -2.9684   -6.1875    0.0000 H   0  0  0  0  0  0  0  0  0  0  0  0
   -2.1434   -7.0125    0.0000 H   0  0  0  0  0  0  0  0  0  0  0  0
   -1.3184   -6.1875    0.0000 H   0  0  0  0  0  0  0  0  0  0  0  0
  1  2  1  0  0  0  0
  2  3  1  0  0  0  0
  3  4  2  0  0  0  0
  4  5  1  0  0  0  0
  4  6  1  0  0  0  0
  6  7  1  0  0  0  0
  6  8  2  0  0  0  0
  8  9  1  0  0  0  0
  9 10  1  0  0  0  0
 10 11  2  0  0  0  0
 10 12  1  0  0  0  0
 12 13  1  0  0  0  0
 13 14  2  0  0  0  0
 14 15  1  0  0  0  0
 14 16  1  0  0  0  0
 16 17  2  0  0  0  0
 17 18  1  0  0  0  0
 17 19  1  0  0  0  0
 19 20  2  0  0  0  0
 20 21  1  0  0  0  0
 21 22  2  0  0  0  0
 22 23  1  0  0  0  0
 23 24  1  0  0  0  0
 23 25  2  0  0  0  0
 13 25  1  0  0  0  0
 19 25  1  0  0  0  0
 22 26  1  0  0  0  0
 21 27  1  0  0  0  0
 20 28  1  0  0  0  0
 12 29  1  0  0  0  0
  9 30  1  0  0  0  0
  9 31  1  0  0  0  0
  8 32  1  0  0  0  0
 32 33  1  0  0  0  0
 32 34  2  0  0  0  0
  3 34  1  0  0  0  0
 34 35  1  0  0  0  0
  1 36  1  0  0  0  0
  1 37  1  0  0  0  0
  1 38  1  0  0  0  0
M  END
> <Potency>
72.5426043048705

> <pIC50>
4.13940685715189

> <Outcome>
Inactive

> <is_active>
0

$$$$

  Mrv1921 08232120312D          

 38 40  0  0  0  0            999 V2000
   -1.4289   -6.6000    0.0000 C   0  0  0  0  0  0  0  0  0  0  0  0
   -0.7145   -6.1875    0.0000 O   0  0  0  0  0  0  0  0  0  0  0  0
   -0.7145   -5.3625    0.0000 C   0  0  0  0  0  0  0  0  0  0  0  0
   -1.4289   -4.9500    0.0000 C   0  0  0  0  0  0  0  0  0  0  0  0
   -2.1434   -5.3625    0.0000 H   0  0  0  0  0  0  0  0  0  0  0  0
   -1.4289   -4.1250    0.0000 C   0  0  0  0  0  0  0  0  0  0  0  0
   -2.1434   -3.7125    0.0000 H   0  0  0  0  0  0  0  0  0  0  0  0
   -0.7145   -3.7125    0.0000 C   0  0  0  0  0  0  0  0  0  0  0  0
   -0.7145   -2.8875    0.0000 H   0  0  0  0  0  0  0  0  0  0  0  0
    0.0000   -4.1250    0.0000 C   0  0  0  0  0  0  0  0  0  0  0  0
    0.7145   -3.7125    0.0000 C   0  0  0  0  0  0  0  0  0  0  0  0
    0.7145   -2.8875    0.0000 C   0  0  0  0  0  0  0  0  0  0  0  0
    0.0000   -2.4750    0.0000 O   0  0  0  0  0  0  0  0  0  0  0  0
    1.4289   -2.4750    0.0000 N   0  0  0  0  0  0  0  0  0  0  0  0
    1.4289   -1.6500    0.0000 C   0  0  0  0  0  0  0  0  0  0  0  0
    0.7145   -1.2375    0.0000 C   0  0  0  0  0  0  0  0  0  0  0  0
    0.0000   -1.6500    0.0000 H   0  0  0  0  0  0  0  0  0  0  0  0
    0.7145   -0.4125    0.0000 N   0  0  0  0  0  0  0  0  0  0  0  0
    1.4289    0.0000    0.0000 C   0  0  0  0  0  0  0  0  0  0  0  0
    1.4289    0.8250    0.0000 H   0  0  0  0  0  0  0  0  0  0  0  0
    2.1434   -0.4125    0.0000 C   0  0  0  0  0  0  0  0  0  0  0  0
    2.8579    0.0000    0.0000 C   0  0  0  0  0  0  0  0  0  0  0  0
    3.5724   -0.4125    0.0000 C   0  0  0  0  0  0  0  0  0  0  0  0
    3.5724   -1.2375    0.0000 C   0  0  0  0  0  0  0  0  0  0  0  0
    2.8579   -1.6500    0.0000 C   0  0  0  0  0  0  0  0  0  0  0  0
    2.8579   -2.4750    0.0000 H   0  0  0  0  0  0  0  0  0  0  0  0
    2.1434   -1.2375    0.0000 C   0  0  0  0  0  0  0  0  0  0  0  0
    4.2868   -1.6500    0.0000 H   0  0  0  0  0  0  0  0  0  0  0  0
    4.2868   -0.0000    0.0000 H   0  0  0  0  0  0  0  0  0  0  0  0
    2.8579    0.8250    0.0000 H   0  0  0  0  0  0  0  0  0  0  0  0
    2.1434   -2.8875    0.0000 H   0  0  0  0  0  0  0  0  0  0  0  0
    1.1678   -4.4018    0.0000 H   0  0  0  0  0  0  0  0  0  0  0  0
    1.5381   -3.7605    0.0000 H   0  0  0  0  0  0  0  0  0  0  0  0
    0.0000   -4.9500    0.0000 C   0  0  0  0  0  0  0  0  0  0  0  0
    0.7145   -5.3625    0.0000 H   0  0  0  0  0  0  0  0  0  0  0  0
   -1.8414   -5.8855    0.0000 H   0  0  0  0  0  0  0  0  0  0  0  0
   -2.1434   -7.0125    0.0000 H   0  0  0  0  0  0  0  0  0  0  0  0
   -1.0164   -7.3145    0.0000 H   0  0  0  0  0  0  0  0  0  0  0  0
  1  2  1  0  0  0  0
  2  3  1  0  0  0  0
  3  4  2  0  0  0  0
  4  5  1  0  0  0  0
  4  6  1  0  0  0  0
  6  7  1  0  0  0  0
  6  8  2  0  0  0  0
  8  9  1  0  0  0  0
  8 10  1  0  0  0  0
 10 11  1  0  0  0  0
 11 12  1  0  0  0  0
 12 13  2  0  0  0  0
 12 14  1  0  0  0  0
 14 15  1  0  0  0  0
 15 16  2  0  0  0  0
 16 17  1  0  0  0  0
 16 18  1  0  0  0  0
 18 19  2  0  0  0  0
 19 20  1  0  0  0  0
 19 21  1  0  0  0  0
 21 22  2  0  0  0  0
 22 23  1  0  0  0  0
 23 24  2  0  0  0  0
 24 25  1  0  0  0  0
 25 26  1  0  0  0  0
 25 27  2  0  0  0  0
 15 27  1  0  0  0  0
 21 27  1  0  0  0  0
 24 28  1  0  0  0  0
 23 29  1  0  0  0  0
 22 30  1  0  0  0  0
 14 31  1  0  0  0  0
 11 32  1  0  0  0  0
 11 33  1  0  0  0  0
 10 34  2  0  0  0  0
  3 34  1  0  0  0  0
 34 35  1  0  0  0  0
  1 36  1  0  0  0  0
  1 37  1  0  0  0  0
  1 38  1  0  0  0  0
M  END
> <Potency>
30.4520094539693

> <pIC50>
4.516384044049944

> <Outcome>
Inactive

> <is_active>
0

$$$$

  Mrv1921 08232120312D          

 34 36  0  0  0  0            999 V2000
    0.0000   -2.4750    0.0000 O   0  0  0  0  0  0  0  0  0  0  0  0
    0.7145   -2.8875    0.0000 C   0  0  0  0  0  0  0  0  0  0  0  0
    0.7145   -3.7125    0.0000 C   0  0  0  0  0  0  0  0  0  0  0  0
    0.0000   -4.1250    0.0000 C   0  0  0  0  0  0  0  0  0  0  0  0
    0.0000   -4.9500    0.0000 C   0  0  0  0  0  0  0  0  0  0  0  0
    0.7145   -5.3625    0.0000 H   0  0  0  0  0  0  0  0  0  0  0  0
   -0.7145   -5.3625    0.0000 C   0  0  0  0  0  0  0  0  0  0  0  0
   -0.7145   -6.1875    0.0000 H   0  0  0  0  0  0  0  0  0  0  0  0
   -1.4289   -4.9500    0.0000 C   0  0  0  0  0  0  0  0  0  0  0  0
   -2.1434   -5.3625    0.0000 H   0  0  0  0  0  0  0  0  0  0  0  0
   -1.4289   -4.1250    0.0000 C   0  0  0  0  0  0  0  0  0  0  0  0
   -2.1434   -3.7125    0.0000 Cl  0  0  0  0  0  0  0  0  0  0  0  0
   -0.7145   -3.7125    0.0000 C   0  0  0  0  0  0  0  0  0  0  0  0
   -0.7145   -2.8875    0.0000 F   0  0  0  0  0  0  0  0  0  0  0  0
    1.1678   -4.4018    0.0000 H   0  0  0  0  0  0  0  0  0  0  0  0
    1.5381   -3.7605    0.0000 H   0  0  0  0  0  0  0  0  0  0  0  0
    1.4289   -2.4750    0.0000 N   0  0  0  0  0  0  0  0  0  0  0  0
    1.4289   -1.6500    0.0000 C   0  0  0  0  0  0  0  0  0  0  0  0
    0.7145   -1.2375    0.0000 C   0  0  0  0  0  0  0  0  0  0  0  0
    0.0000   -1.6500    0.0000 H   0  0  0  0  0  0  0  0  0  0  0  0
    0.7145   -0.4125    0.0000 N   0  0  0  0  0  0  0  0  0  0  0  0
    1.4289    0.0000    0.0000 C   0  0  0  0  0  0  0  0  0  0  0  0
    1.4289    0.8250    0.0000 H   0  0  0  0  0  0  0  0  0  0  0  0
    2.1434   -0.4125    0.0000 C   0  0  0  0  0  0  0  0  0  0  0  0
    2.8579    0.0000    0.0000 C   0  0  0  0  0  0  0  0  0  0  0  0
    3.5724   -0.4125    0.0000 C   0  0  0  0  0  0  0  0  0  0  0  0
    3.5724   -1.2375    0.0000 C   0  0  0  0  0  0  0  0  0  0  0  0
    2.8579   -1.6500    0.0000 C   0  0  0  0  0  0  0  0  0  0  0  0
    2.8579   -2.4750    0.0000 H   0  0  0  0  0  0  0  0  0  0  0  0
    2.1434   -1.2375    0.0000 C   0  0  0  0  0  0  0  0  0  0  0  0
    4.2868   -1.6500    0.0000 H   0  0  0  0  0  0  0  0  0  0  0  0
    4.2868   -0.0000    0.0000 H   0  0  0  0  0  0  0  0  0  0  0  0
    2.8579    0.8250    0.0000 H   0  0  0  0  0  0  0  0  0  0  0  0
    2.1434   -2.8875    0.0000 H   0  0  0  0  0  0  0  0  0  0  0  0
  1  2  2  0  0  0  0
  2  3  1  0  0  0  0
  3  4  1  0  0  0  0
  4  5  2  0  0  0  0
  5  6  1  0  0  0  0
  5  7  1  0  0  0  0
  7  8  1  0  0  0  0
  7  9  2  0  0  0  0
  9 10  1  0  0  0  0
  9 11  1  0  0  0  0
 11 12  1  0  0  0  0
 11 13  2  0  0  0  0
  4 13  1  0  0  0  0
 13 14  1  0  0  0  0
  3 15  1  0  0  0  0
  3 16  1  0  0  0  0
  2 17  1  0  0  0  0
 17 18  1  0  0  0  0
 18 19  2  0  0  0  0
 19 20  1  0  0  0  0
 19 21  1  0  0  0  0
 21 22  2  0  0  0  0
 22 23  1  0  0  0  0
 22 24  1  0  0  0  0
 24 25  2  0  0  0  0
 25 26  1  0  0  0  0
 26 27  2  0  0  0  0
 27 28  1  0  0  0  0
 28 29  1  0  0  0  0
 28 30  2  0  0  0  0
 18 30  1  0  0  0  0
 24 30  1  0  0  0  0
 27 31  1  0  0  0  0
 26 32  1  0  0  0  0
 25 33  1  0  0  0  0
 17 34  1  0  0  0  0
M  END
> <Potency>
23.5559554363504

> <pIC50>
4.627899275958983

> <Outcome>
Inactive

> <is_active>
0

$$$$

  Mrv1921 08232120312D          

 34 36  0  0  0  0            999 V2000
    0.0000   -2.4750    0.0000 O   0  0  0  0  0  0  0  0  0  0  0  0
    0.7145   -2.8875    0.0000 C   0  0  0  0  0  0  0  0  0  0  0  0
    0.7145   -3.7125    0.0000 C   0  0  0  0  0  0  0  0  0  0  0  0
    0.0000   -4.1250    0.0000 C   0  0  0  0  0  0  0  0  0  0  0  0
    0.0000   -4.9500    0.0000 C   0  0  0  0  0  0  0  0  0  0  0  0
    0.7145   -5.3625    0.0000 H   0  0  0  0  0  0  0  0  0  0  0  0
   -0.7145   -5.3625    0.0000 C   0  0  0  0  0  0  0  0  0  0  0  0
   -0.7145   -6.1875    0.0000 H   0  0  0  0  0  0  0  0  0  0  0  0
   -1.4289   -4.9500    0.0000 C   0  0  0  0  0  0  0  0  0  0  0  0
   -2.1434   -5.3625    0.0000 H   0  0  0  0  0  0  0  0  0  0  0  0
   -1.4289   -4.1250    0.0000 C   0  0  0  0  0  0  0  0  0  0  0  0
   -2.1434   -3.7125    0.0000 F   0  0  0  0  0  0  0  0  0  0  0  0
   -0.7145   -3.7125    0.0000 C   0  0  0  0  0  0  0  0  0  0  0  0
   -0.7145   -2.8875    0.0000 F   0  0  0  0  0  0  0  0  0  0  0  0
    1.1678   -4.4018    0.0000 H   0  0  0  0  0  0  0  0  0  0  0  0
    1.5381   -3.7605    0.0000 H   0  0  0  0  0  0  0  0  0  0  0  0
    1.4289   -2.4750    0.0000 N   0  0  0  0  0  0  0  0  0  0  0  0
    1.4289   -1.6500    0.0000 C   0  0  0  0  0  0  0  0  0  0  0  0
    0.7145   -1.2375    0.0000 C   0  0  0  0  0  0  0  0  0  0  0  0
    0.0000   -1.6500    0.0000 H   0  0  0  0  0  0  0  0  0  0  0  0
    0.7145   -0.4125    0.0000 N   0  0  0  0  0  0  0  0  0  0  0  0
    1.4289    0.0000    0.0000 C   0  0  0  0  0  0  0  0  0  0  0  0
    1.4289    0.8250    0.0000 H   0  0  0  0  0  0  0  0  0  0  0  0
    2.1434   -0.4125    0.0000 C   0  0  0  0  0  0  0  0  0  0  0  0
    2.8579    0.0000    0.0000 C   0  0  0  0  0  0  0  0  0  0  0  0
    3.5724   -0.4125    0.0000 C   0  0  0  0  0  0  0  0  0  0  0  0
    3.5724   -1.2375    0.0000 C   0  0  0  0  0  0  0  0  0  0  0  0
    2.8579   -1.6500    0.0000 C   0  0  0  0  0  0  0  0  0  0  0  0
    2.8579   -2.4750    0.0000 H   0  0  0  0  0  0  0  0  0  0  0  0
    2.1434   -1.2375    0.0000 C   0  0  0  0  0  0  0  0  0  0  0  0
    4.2868   -1.6500    0.0000 H   0  0  0  0  0  0  0  0  0  0  0  0
    4.2868   -0.0000    0.0000 H   0  0  0  0  0  0  0  0  0  0  0  0
    2.8579    0.8250    0.0000 H   0  0  0  0  0  0  0  0  0  0  0  0
    2.1434   -2.8875    0.0000 H   0  0  0  0  0  0  0  0  0  0  0  0
  1  2  2  0  0  0  0
  2  3  1  0  0  0  0
  3  4  1  0  0  0  0
  4  5  2  0  0  0  0
  5  6  1  0  0  0  0
  5  7  1  0  0  0  0
  7  8  1  0  0  0  0
  7  9  2  0  0  0  0
  9 10  1  0  0  0  0
  9 11  1  0  0  0  0
 11 12  1  0  0  0  0
 11 13  2  0  0  0  0
  4 13  1  0  0  0  0
 13 14  1  0  0  0  0
  3 15  1  0  0  0  0
  3 16  1  0  0  0  0
  2 17  1  0  0  0  0
 17 18  1  0  0  0  0
 18 19  2  0  0  0  0
 19 20  1  0  0  0  0
 19 21  1  0  0  0  0
 21 22  2  0  0  0  0
 22 23  1  0  0  0  0
 22 24  1  0  0  0  0
 24 25  2  0  0  0  0
 25 26  1  0  0  0  0
 26 27  2  0  0  0  0
 27 28  1  0  0  0  0
 28 29  1  0  0  0  0
 28 30  2  0  0  0  0
 18 30  1  0  0  0  0
 24 30  1  0  0  0  0
 27 31  1  0  0  0  0
 26 32  1  0  0  0  0
 25 33  1  0  0  0  0
 17 34  1  0  0  0  0
M  END
> <Potency>
13.1917655694162

> <pIC50>
4.879697075132911

> <Outcome>
Inactive

> <is_active>
0

$$$$

  Mrv1921 08232120312D          

 37 39  0  0  0  0            999 V2000
    0.0000   -2.4750    0.0000 O   0  0  0  0  0  0  0  0  0  0  0  0
    0.7145   -2.8875    0.0000 C   0  0  0  0  0  0  0  0  0  0  0  0
    0.7145   -3.7125    0.0000 C   0  0  0  0  0  0  0  0  0  0  0  0
    0.0000   -4.1250    0.0000 C   0  0  0  0  0  0  0  0  0  0  0  0
    0.0000   -4.9500    0.0000 C   0  0  0  0  0  0  0  0  0  0  0  0
    0.7145   -5.3625    0.0000 H   0  0  0  0  0  0  0  0  0  0  0  0
   -0.7145   -5.3625    0.0000 C   0  0  0  0  0  0  0  0  0  0  0  0
   -0.7145   -6.1875    0.0000 H   0  0  0  0  0  0  0  0  0  0  0  0
   -1.4289   -4.9500    0.0000 C   0  0  0  0  0  0  0  0  0  0  0  0
   -2.1434   -5.3625    0.0000 C   0  0  0  0  0  0  0  0  0  0  0  0
   -2.8579   -5.7750    0.0000 F   0  0  0  0  0  0  0  0  0  0  0  0
   -1.7309   -6.0770    0.0000 F   0  0  0  0  0  0  0  0  0  0  0  0
   -2.5559   -4.6480    0.0000 F   0  0  0  0  0  0  0  0  0  0  0  0
   -1.4289   -4.1250    0.0000 C   0  0  0  0  0  0  0  0  0  0  0  0
   -2.1434   -3.7125    0.0000 H   0  0  0  0  0  0  0  0  0  0  0  0
   -0.7145   -3.7125    0.0000 C   0  0  0  0  0  0  0  0  0  0  0  0
   -0.7145   -2.8875    0.0000 H   0  0  0  0  0  0  0  0  0  0  0  0
    1.1678   -4.4018    0.0000 H   0  0  0  0  0  0  0  0  0  0  0  0
    1.5381   -3.7605    0.0000 H   0  0  0  0  0  0  0  0  0  0  0  0
    1.4289   -2.4750    0.0000 N   0  0  0  0  0  0  0  0  0  0  0  0
    1.4289   -1.6500    0.0000 C   0  0  0  0  0  0  0  0  0  0  0  0
    0.7145   -1.2375    0.0000 C   0  0  0  0  0  0  0  0  0  0  0  0
    0.0000   -1.6500    0.0000 H   0  0  0  0  0  0  0  0  0  0  0  0
    0.7145   -0.4125    0.0000 N   0  0  0  0  0  0  0  0  0  0  0  0
    1.4289    0.0000    0.0000 C   0  0  0  0  0  0  0  0  0  0  0  0
    1.4289    0.8250    0.0000 H   0  0  0  0  0  0  0  0  0  0  0  0
    2.1434   -0.4125    0.0000 C   0  0  0  0  0  0  0  0  0  0  0  0
    2.8579    0.0000    0.0000 C   0  0  0  0  0  0  0  0  0  0  0  0
    3.5724   -0.4125    0.0000 C   0  0  0  0  0  0  0  0  0  0  0  0
    3.5724   -1.2375    0.0000 C   0  0  0  0  0  0  0  0  0  0  0  0
    2.8579   -1.6500    0.0000 C   0  0  0  0  0  0  0  0  0  0  0  0
    2.8579   -2.4750    0.0000 H   0  0  0  0  0  0  0  0  0  0  0  0
    2.1434   -1.2375    0.0000 C   0  0  0  0  0  0  0  0  0  0  0  0
    4.2868   -1.6500    0.0000 H   0  0  0  0  0  0  0  0  0  0  0  0
    4.2868   -0.0000    0.0000 H   0  0  0  0  0  0  0  0  0  0  0  0
    2.8579    0.8250    0.0000 H   0  0  0  0  0  0  0  0  0  0  0  0
    2.1434   -2.8875    0.0000 H   0  0  0  0  0  0  0  0  0  0  0  0
  1  2  2  0  0  0  0
  2  3  1  0  0  0  0
  3  4  1  0  0  0  0
  4  5  2  0  0  0  0
  5  6  1  0  0  0  0
  5  7  1  0  0  0  0
  7  8  1  0  0  0  0
  7  9  2  0  0  0  0
  9 10  1  0  0  0  0
 10 11  1  0  0  0  0
 10 12  1  0  0  0  0
 10 13  1  0  0  0  0
  9 14  1  0  0  0  0
 14 15  1  0  0  0  0
 14 16  2  0  0  0  0
  4 16  1  0  0  0  0
 16 17  1  0  0  0  0
  3 18  1  0  0  0  0
  3 19  1  0  0  0  0
  2 20  1  0  0  0  0
 20 21  1  0  0  0  0
 21 22  2  0  0  0  0
 22 23  1  0  0  0  0
 22 24  1  0  0  0  0
 24 25  2  0  0  0  0
 25 26  1  0  0  0  0
 25 27  1  0  0  0  0
 27 28  2  0  0  0  0
 28 29  1  0  0  0  0
 29 30  2  0  0  0  0
 30 31  1  0  0  0  0
 31 32  1  0  0  0  0
 31 33  2  0  0  0  0
 21 33  1  0  0  0  0
 27 33  1  0  0  0  0
 30 34  1  0  0  0  0
 29 35  1  0  0  0  0
 28 36  1  0  0  0  0
 20 37  1  0  0  0  0
M  END
> <Potency>
24.8160468242601

> <pIC50>
4.605267400079366

> <Outcome>
Inactive

> <is_active>
0

$$$$

  Mrv1921 08232120312D          

 33 35  0  0  0  0            999 V2000
    0.0000   -2.4750    0.0000 O   0  0  0  0  0  0  0  0  0  0  0  0
    0.7145   -2.8875    0.0000 C   0  0  0  0  0  0  0  0  0  0  0  0
    0.7145   -3.7125    0.0000 C   0  0  0  0  0  0  0  0  0  0  0  0
    0.0000   -4.1250    0.0000 C   0  0  0  0  0  0  0  0  0  0  0  0
    0.0000   -4.9500    0.0000 C   0  0  0  0  0  0  0  0  0  0  0  0
    0.7145   -5.3625    0.0000 H   0  0  0  0  0  0  0  0  0  0  0  0
   -0.7145   -5.3625    0.0000 C   0  0  0  0  0  0  0  0  0  0  0  0
   -0.7145   -6.1875    0.0000 H   0  0  0  0  0  0  0  0  0  0  0  0
   -1.4289   -4.9500    0.0000 C   0  0  0  0  0  0  0  0  0  0  0  0
   -2.1434   -5.3625    0.0000 Cl  0  0  0  0  0  0  0  0  0  0  0  0
   -1.4289   -4.1250    0.0000 C   0  0  0  0  0  0  0  0  0  0  0  0
   -2.1434   -3.7125    0.0000 H   0  0  0  0  0  0  0  0  0  0  0  0
   -0.7145   -3.7125    0.0000 N   0  0  0  0  0  0  0  0  0  0  0  0
    1.1678   -4.4018    0.0000 H   0  0  0  0  0  0  0  0  0  0  0  0
    1.5381   -3.7605    0.0000 H   0  0  0  0  0  0  0  0  0  0  0  0
    1.4289   -2.4750    0.0000 N   0  0  0  0  0  0  0  0  0  0  0  0
    1.4289   -1.6500    0.0000 C   0  0  0  0  0  0  0  0  0  0  0  0
    0.7145   -1.2375    0.0000 C   0  0  0  0  0  0  0  0  0  0  0  0
    0.0000   -1.6500    0.0000 H   0  0  0  0  0  0  0  0  0  0  0  0
    0.7145   -0.4125    0.0000 N   0  0  0  0  0  0  0  0  0  0  0  0
    1.4289    0.0000    0.0000 C   0  0  0  0  0  0  0  0  0  0  0  0
    1.4289    0.8250    0.0000 H   0  0  0  0  0  0  0  0  0  0  0  0
    2.1434   -0.4125    0.0000 C   0  0  0  0  0  0  0  0  0  0  0  0
    2.8579    0.0000    0.0000 C   0  0  0  0  0  0  0  0  0  0  0  0
    3.5724   -0.4125    0.0000 C   0  0  0  0  0  0  0  0  0  0  0  0
    3.5724   -1.2375    0.0000 C   0  0  0  0  0  0  0  0  0  0  0  0
    2.8579   -1.6500    0.0000 C   0  0  0  0  0  0  0  0  0  0  0  0
    2.8579   -2.4750    0.0000 H   0  0  0  0  0  0  0  0  0  0  0  0
    2.1434   -1.2375    0.0000 C   0  0  0  0  0  0  0  0  0  0  0  0
    4.2868   -1.6500    0.0000 H   0  0  0  0  0  0  0  0  0  0  0  0
    4.2868   -0.0000    0.0000 H   0  0  0  0  0  0  0  0  0  0  0  0
    2.8579    0.8250    0.0000 H   0  0  0  0  0  0  0  0  0  0  0  0
    2.1434   -2.8875    0.0000 H   0  0  0  0  0  0  0  0  0  0  0  0
  1  2  2  0  0  0  0
  2  3  1  0  0  0  0
  3  4  1  0  0  0  0
  4  5  2  0  0  0  0
  5  6  1  0  0  0  0
  5  7  1  0  0  0  0
  7  8  1  0  0  0  0
  7  9  2  0  0  0  0
  9 10  1  0  0  0  0
  9 11  1  0  0  0  0
 11 12  1  0  0  0  0
 11 13  2  0  0  0  0
  4 13  1  0  0  0  0
  3 14  1  0  0  0  0
  3 15  1  0  0  0  0
  2 16  1  0  0  0  0
 16 17  1  0  0  0  0
 17 18  2  0  0  0  0
 18 19  1  0  0  0  0
 18 20  1  0  0  0  0
 20 21  2  0  0  0  0
 21 22  1  0  0  0  0
 21 23  1  0  0  0  0
 23 24  2  0  0  0  0
 24 25  1  0  0  0  0
 25 26  2  0  0  0  0
 26 27  1  0  0  0  0
 27 28  1  0  0  0  0
 27 29  2  0  0  0  0
 17 29  1  0  0  0  0
 23 29  1  0  0  0  0
 26 30  1  0  0  0  0
 25 31  1  0  0  0  0
 24 32  1  0  0  0  0
 16 33  1  0  0  0  0
M  END
> <Potency>
12.2352188632882

> <pIC50>
4.912388257593906

> <Outcome>
Inactive

> <is_active>
0

$$$$

  Mrv1921 08232120312D          

 33 35  0  0  0  0            999 V2000
    0.0000   -2.4750    0.0000 O   0  0  0  0  0  0  0  0  0  0  0  0
    0.7145   -2.8875    0.0000 C   0  0  0  0  0  0  0  0  0  0  0  0
    0.7145   -3.7125    0.0000 C   0  0  0  0  0  0  0  0  0  0  0  0
    0.0000   -4.1250    0.0000 C   0  0  0  0  0  0  0  0  0  0  0  0
    0.0000   -4.9500    0.0000 C   0  0  0  0  0  0  0  0  0  0  0  0
    0.7145   -5.3625    0.0000 H   0  0  0  0  0  0  0  0  0  0  0  0
   -0.7145   -5.3625    0.0000 C   0  0  0  0  0  0  0  0  0  0  0  0
   -0.7145   -6.1875    0.0000 H   0  0  0  0  0  0  0  0  0  0  0  0
   -1.4289   -4.9500    0.0000 N   0  0  0  0  0  0  0  0  0  0  0  0
   -1.4289   -4.1250    0.0000 C   0  0  0  0  0  0  0  0  0  0  0  0
   -2.1434   -3.7125    0.0000 H   0  0  0  0  0  0  0  0  0  0  0  0
   -0.7145   -3.7125    0.0000 C   0  0  0  0  0  0  0  0  0  0  0  0
   -0.7145   -2.8875    0.0000 Cl  0  0  0  0  0  0  0  0  0  0  0  0
    1.1678   -4.4018    0.0000 H   0  0  0  0  0  0  0  0  0  0  0  0
    1.5381   -3.7605    0.0000 H   0  0  0  0  0  0  0  0  0  0  0  0
    1.4289   -2.4750    0.0000 N   0  0  0  0  0  0  0  0  0  0  0  0
    1.4289   -1.6500    0.0000 C   0  0  0  0  0  0  0  0  0  0  0  0
    0.7145   -1.2375    0.0000 C   0  0  0  0  0  0  0  0  0  0  0  0
    0.0000   -1.6500    0.0000 H   0  0  0  0  0  0  0  0  0  0  0  0
    0.7145   -0.4125    0.0000 N   0  0  0  0  0  0  0  0  0  0  0  0
    1.4289    0.0000    0.0000 C   0  0  0  0  0  0  0  0  0  0  0  0
    1.4289    0.8250    0.0000 H   0  0  0  0  0  0  0  0  0  0  0  0
    2.1434   -0.4125    0.0000 C   0  0  0  0  0  0  0  0  0  0  0  0
    2.8579    0.0000    0.0000 C   0  0  0  0  0  0  0  0  0  0  0  0
    3.5724   -0.4125    0.0000 C   0  0  0  0  0  0  0  0  0  0  0  0
    3.5724   -1.2375    0.0000 C   0  0  0  0  0  0  0  0  0  0  0  0
    2.8579   -1.6500    0.0000 C   0  0  0  0  0  0  0  0  0  0  0  0
    2.8579   -2.4750    0.0000 H   0  0  0  0  0  0  0  0  0  0  0  0
    2.1434   -1.2375    0.0000 C   0  0  0  0  0  0  0  0  0  0  0  0
    4.2868   -1.6500    0.0000 H   0  0  0  0  0  0  0  0  0  0  0  0
    4.2868   -0.0000    0.0000 H   0  0  0  0  0  0  0  0  0  0  0  0
    2.8579    0.8250    0.0000 H   0  0  0  0  0  0  0  0  0  0  0  0
    2.1434   -2.8875    0.0000 H   0  0  0  0  0  0  0  0  0  0  0  0
  1  2  2  0  0  0  0
  2  3  1  0  0  0  0
  3  4  1  0  0  0  0
  4  5  2  0  0  0  0
  5  6  1  0  0  0  0
  5  7  1  0  0  0  0
  7  8  1  0  0  0  0
  7  9  2  0  0  0  0
  9 10  1  0  0  0  0
 10 11  1  0  0  0  0
 10 12  2  0  0  0  0
  4 12  1  0  0  0  0
 12 13  1  0  0  0  0
  3 14  1  0  0  0  0
  3 15  1  0  0  0  0
  2 16  1  0  0  0  0
 16 17  1  0  0  0  0
 17 18  2  0  0  0  0
 18 19  1  0  0  0  0
 18 20  1  0  0  0  0
 20 21  2  0  0  0  0
 21 22  1  0  0  0  0
 21 23  1  0  0  0  0
 23 24  2  0  0  0  0
 24 25  1  0  0  0  0
 25 26  2  0  0  0  0
 26 27  1  0  0  0  0
 27 28  1  0  0  0  0
 27 29  2  0  0  0  0
 17 29  1  0  0  0  0
 23 29  1  0  0  0  0
 26 30  1  0  0  0  0
 25 31  1  0  0  0  0
 24 32  1  0  0  0  0
 16 33  1  0  0  0  0
M  END
> <Potency>
52.5959657269536

> <pIC50>
4.279047566297118

> <Outcome>
Inactive

> <is_active>
0

$$$$

  Mrv1921 08232120312D          

 34 36  0  0  0  0            999 V2000
    0.0000   -2.4750    0.0000 O   0  0  0  0  0  0  0  0  0  0  0  0
    0.7145   -2.8875    0.0000 C   0  0  0  0  0  0  0  0  0  0  0  0
    0.7145   -3.7125    0.0000 C   0  0  0  0  0  0  0  0  0  0  0  0
    0.0000   -4.1250    0.0000 C   0  0  0  0  0  0  0  0  0  0  0  0
    0.0000   -4.9500    0.0000 C   0  0  0  0  0  0  0  0  0  0  0  0
    0.7145   -5.3625    0.0000 H   0  0  0  0  0  0  0  0  0  0  0  0
   -0.7145   -5.3625    0.0000 C   0  0  0  0  0  0  0  0  0  0  0  0
   -0.7145   -6.1875    0.0000 H   0  0  0  0  0  0  0  0  0  0  0  0
   -1.4289   -4.9500    0.0000 C   0  0  0  0  0  0  0  0  0  0  0  0
   -2.1434   -5.3625    0.0000 H   0  0  0  0  0  0  0  0  0  0  0  0
   -1.4289   -4.1250    0.0000 C   0  0  0  0  0  0  0  0  0  0  0  0
   -2.1434   -3.7125    0.0000 H   0  0  0  0  0  0  0  0  0  0  0  0
   -0.7145   -3.7125    0.0000 C   0  0  0  0  0  0  0  0  0  0  0  0
   -0.7145   -2.8875    0.0000 F   0  0  0  0  0  0  0  0  0  0  0  0
    1.1678   -4.4018    0.0000 H   0  0  0  0  0  0  0  0  0  0  0  0
    1.5381   -3.7605    0.0000 H   0  0  0  0  0  0  0  0  0  0  0  0
    1.4289   -2.4750    0.0000 N   0  0  0  0  0  0  0  0  0  0  0  0
    1.4289   -1.6500    0.0000 C   0  0  0  0  0  0  0  0  0  0  0  0
    0.7145   -1.2375    0.0000 C   0  0  0  0  0  0  0  0  0  0  0  0
    0.0000   -1.6500    0.0000 H   0  0  0  0  0  0  0  0  0  0  0  0
    0.7145   -0.4125    0.0000 N   0  0  0  0  0  0  0  0  0  0  0  0
    1.4289    0.0000    0.0000 C   0  0  0  0  0  0  0  0  0  0  0  0
    1.4289    0.8250    0.0000 H   0  0  0  0  0  0  0  0  0  0  0  0
    2.1434   -0.4125    0.0000 C   0  0  0  0  0  0  0  0  0  0  0  0
    2.8579    0.0000    0.0000 C   0  0  0  0  0  0  0  0  0  0  0  0
    3.5724   -0.4125    0.0000 C   0  0  0  0  0  0  0  0  0  0  0  0
    3.5724   -1.2375    0.0000 C   0  0  0  0  0  0  0  0  0  0  0  0
    2.8579   -1.6500    0.0000 C   0  0  0  0  0  0  0  0  0  0  0  0
    2.8579   -2.4750    0.0000 H   0  0  0  0  0  0  0  0  0  0  0  0
    2.1434   -1.2375    0.0000 C   0  0  0  0  0  0  0  0  0  0  0  0
    4.2868   -1.6500    0.0000 H   0  0  0  0  0  0  0  0  0  0  0  0
    4.2868   -0.0000    0.0000 H   0  0  0  0  0  0  0  0  0  0  0  0
    2.8579    0.8250    0.0000 H   0  0  0  0  0  0  0  0  0  0  0  0
    2.1434   -2.8875    0.0000 H   0  0  0  0  0  0  0  0  0  0  0  0
  1  2  2  0  0  0  0
  2  3  1  0  0  0  0
  3  4  1  0  0  0  0
  4  5  2  0  0  0  0
  5  6  1  0  0  0  0
  5  7  1  0  0  0  0
  7  8  1  0  0  0  0
  7  9  2  0  0  0  0
  9 10  1  0  0  0  0
  9 11  1  0  0  0  0
 11 12  1  0  0  0  0
 11 13  2  0  0  0  0
  4 13  1  0  0  0  0
 13 14  1  0  0  0  0
  3 15  1  0  0  0  0
  3 16  1  0  0  0  0
  2 17  1  0  0  0  0
 17 18  1  0  0  0  0
 18 19  2  0  0  0  0
 19 20  1  0  0  0  0
 19 21  1  0  0  0  0
 21 22  2  0  0  0  0
 22 23  1  0  0  0  0
 22 24  1  0  0  0  0
 24 25  2  0  0  0  0
 25 26  1  0  0  0  0
 26 27  2  0  0  0  0
 27 28  1  0  0  0  0
 28 29  1  0  0  0  0
 28 30  2  0  0  0  0
 18 30  1  0  0  0  0
 24 30  1  0  0  0  0
 27 31  1  0  0  0  0
 26 32  1  0  0  0  0
 25 33  1  0  0  0  0
 17 34  1  0  0  0  0
M  END
> <Potency>
24.7445180162835

> <pIC50>
4.606521001133773

> <Outcome>
Inactive

> <is_active>
0

$$$$

  Mrv1921 08232120312D          

 37 39  0  0  0  0            999 V2000
    0.7145   -5.3625    0.0000 C   0  0  0  0  0  0  0  0  0  0  0  0
    0.0000   -4.9500    0.0000 C   0  0  0  0  0  0  0  0  0  0  0  0
   -0.7145   -5.3625    0.0000 C   0  0  0  0  0  0  0  0  0  0  0  0
   -0.7145   -6.1875    0.0000 H   0  0  0  0  0  0  0  0  0  0  0  0
   -1.4289   -4.9500    0.0000 C   0  0  0  0  0  0  0  0  0  0  0  0
   -2.1434   -5.3625    0.0000 H   0  0  0  0  0  0  0  0  0  0  0  0
   -1.4289   -4.1250    0.0000 C   0  0  0  0  0  0  0  0  0  0  0  0
   -2.1434   -3.7125    0.0000 H   0  0  0  0  0  0  0  0  0  0  0  0
   -0.7145   -3.7125    0.0000 C   0  0  0  0  0  0  0  0  0  0  0  0
   -0.7145   -2.8875    0.0000 H   0  0  0  0  0  0  0  0  0  0  0  0
    0.0000   -4.1250    0.0000 C   0  0  0  0  0  0  0  0  0  0  0  0
    0.7145   -3.7125    0.0000 C   0  0  0  0  0  0  0  0  0  0  0  0
    0.7145   -2.8875    0.0000 C   0  0  0  0  0  0  0  0  0  0  0  0
    0.0000   -2.4750    0.0000 O   0  0  0  0  0  0  0  0  0  0  0  0
    1.4289   -2.4750    0.0000 N   0  0  0  0  0  0  0  0  0  0  0  0
    1.4289   -1.6500    0.0000 C   0  0  0  0  0  0  0  0  0  0  0  0
    0.7145   -1.2375    0.0000 C   0  0  0  0  0  0  0  0  0  0  0  0
    0.0000   -1.6500    0.0000 H   0  0  0  0  0  0  0  0  0  0  0  0
    0.7145   -0.4125    0.0000 N   0  0  0  0  0  0  0  0  0  0  0  0
    1.4289    0.0000    0.0000 C   0  0  0  0  0  0  0  0  0  0  0  0
    1.4289    0.8250    0.0000 H   0  0  0  0  0  0  0  0  0  0  0  0
    2.1434   -0.4125    0.0000 C   0  0  0  0  0  0  0  0  0  0  0  0
    2.8579    0.0000    0.0000 C   0  0  0  0  0  0  0  0  0  0  0  0
    3.5724   -0.4125    0.0000 C   0  0  0  0  0  0  0  0  0  0  0  0
    3.5724   -1.2375    0.0000 C   0  0  0  0  0  0  0  0  0  0  0  0
    2.8579   -1.6500    0.0000 C   0  0  0  0  0  0  0  0  0  0  0  0
    2.8579   -2.4750    0.0000 H   0  0  0  0  0  0  0  0  0  0  0  0
    2.1434   -1.2375    0.0000 C   0  0  0  0  0  0  0  0  0  0  0  0
    4.2868   -1.6500    0.0000 H   0  0  0  0  0  0  0  0  0  0  0  0
    4.2868   -0.0000    0.0000 H   0  0  0  0  0  0  0  0  0  0  0  0
    2.8579    0.8250    0.0000 H   0  0  0  0  0  0  0  0  0  0  0  0
    2.1434   -2.8875    0.0000 H   0  0  0  0  0  0  0  0  0  0  0  0
    1.1678   -4.4018    0.0000 H   0  0  0  0  0  0  0  0  0  0  0  0
    1.5381   -3.7605    0.0000 H   0  0  0  0  0  0  0  0  0  0  0  0
    0.3020   -6.0770    0.0000 H   0  0  0  0  0  0  0  0  0  0  0  0
    1.4289   -5.7750    0.0000 H   0  0  0  0  0  0  0  0  0  0  0  0
    1.1270   -4.6480    0.0000 H   0  0  0  0  0  0  0  0  0  0  0  0
  1  2  1  0  0  0  0
  2  3  2  0  0  0  0
  3  4  1  0  0  0  0
  3  5  1  0  0  0  0
  5  6  1  0  0  0  0
  5  7  2  0  0  0  0
  7  8  1  0  0  0  0
  7  9  1  0  0  0  0
  9 10  1  0  0  0  0
  9 11  2  0  0  0  0
  2 11  1  0  0  0  0
 11 12  1  0  0  0  0
 12 13  1  0  0  0  0
 13 14  2  0  0  0  0
 13 15  1  0  0  0  0
 15 16  1  0  0  0  0
 16 17  2  0  0  0  0
 17 18  1  0  0  0  0
 17 19  1  0  0  0  0
 19 20  2  0  0  0  0
 20 21  1  0  0  0  0
 20 22  1  0  0  0  0
 22 23  2  0  0  0  0
 23 24  1  0  0  0  0
 24 25  2  0  0  0  0
 25 26  1  0  0  0  0
 26 27  1  0  0  0  0
 26 28  2  0  0  0  0
 16 28  1  0  0  0  0
 22 28  1  0  0  0  0
 25 29  1  0  0  0  0
 24 30  1  0  0  0  0
 23 31  1  0  0  0  0
 15 32  1  0  0  0  0
 12 33  1  0  0  0  0
 12 34  1  0  0  0  0
  1 35  1  0  0  0  0
  1 36  1  0  0  0  0
  1 37  1  0  0  0  0
M  END
> <Potency>
29.5343989779257

> <pIC50>
4.52967186256568

> <Outcome>
Inactive

> <is_active>
0

$$$$

  Mrv1921 08232120312D          

 38 40  0  0  0  0            999 V2000
    0.7145   -6.1875    0.0000 C   0  0  0  0  0  0  0  0  0  0  0  0
    0.7145   -5.3625    0.0000 O   0  0  0  0  0  0  0  0  0  0  0  0
    0.0000   -4.9500    0.0000 C   0  0  0  0  0  0  0  0  0  0  0  0
   -0.7145   -5.3625    0.0000 C   0  0  0  0  0  0  0  0  0  0  0  0
   -0.7145   -6.1875    0.0000 H   0  0  0  0  0  0  0  0  0  0  0  0
   -1.4289   -4.9500    0.0000 C   0  0  0  0  0  0  0  0  0  0  0  0
   -2.1434   -5.3625    0.0000 H   0  0  0  0  0  0  0  0  0  0  0  0
   -1.4289   -4.1250    0.0000 C   0  0  0  0  0  0  0  0  0  0  0  0
   -2.1434   -3.7125    0.0000 H   0  0  0  0  0  0  0  0  0  0  0  0
   -0.7145   -3.7125    0.0000 C   0  0  0  0  0  0  0  0  0  0  0  0
   -0.7145   -2.8875    0.0000 H   0  0  0  0  0  0  0  0  0  0  0  0
    0.0000   -4.1250    0.0000 C   0  0  0  0  0  0  0  0  0  0  0  0
    0.7145   -3.7125    0.0000 C   0  0  0  0  0  0  0  0  0  0  0  0
    0.7145   -2.8875    0.0000 C   0  0  0  0  0  0  0  0  0  0  0  0
    0.0000   -2.4750    0.0000 O   0  0  0  0  0  0  0  0  0  0  0  0
    1.4289   -2.4750    0.0000 N   0  0  0  0  0  0  0  0  0  0  0  0
    1.4289   -1.6500    0.0000 C   0  0  0  0  0  0  0  0  0  0  0  0
    0.7145   -1.2375    0.0000 C   0  0  0  0  0  0  0  0  0  0  0  0
    0.0000   -1.6500    0.0000 H   0  0  0  0  0  0  0  0  0  0  0  0
    0.7145   -0.4125    0.0000 N   0  0  0  0  0  0  0  0  0  0  0  0
    1.4289    0.0000    0.0000 C   0  0  0  0  0  0  0  0  0  0  0  0
    1.4289    0.8250    0.0000 H   0  0  0  0  0  0  0  0  0  0  0  0
    2.1434   -0.4125    0.0000 C   0  0  0  0  0  0  0  0  0  0  0  0
    2.8579    0.0000    0.0000 C   0  0  0  0  0  0  0  0  0  0  0  0
    3.5724   -0.4125    0.0000 C   0  0  0  0  0  0  0  0  0  0  0  0
    3.5724   -1.2375    0.0000 C   0  0  0  0  0  0  0  0  0  0  0  0
    2.8579   -1.6500    0.0000 C   0  0  0  0  0  0  0  0  0  0  0  0
    2.8579   -2.4750    0.0000 H   0  0  0  0  0  0  0  0  0  0  0  0
    2.1434   -1.2375    0.0000 C   0  0  0  0  0  0  0  0  0  0  0  0
    4.2868   -1.6500    0.0000 H   0  0  0  0  0  0  0  0  0  0  0  0
    4.2868   -0.0000    0.0000 H   0  0  0  0  0  0  0  0  0  0  0  0
    2.8579    0.8250    0.0000 H   0  0  0  0  0  0  0  0  0  0  0  0
    2.1434   -2.8875    0.0000 H   0  0  0  0  0  0  0  0  0  0  0  0
    1.1678   -4.4018    0.0000 H   0  0  0  0  0  0  0  0  0  0  0  0
    1.5381   -3.7605    0.0000 H   0  0  0  0  0  0  0  0  0  0  0  0
   -0.1105   -6.1875    0.0000 H   0  0  0  0  0  0  0  0  0  0  0  0
    0.7145   -7.0125    0.0000 H   0  0  0  0  0  0  0  0  0  0  0  0
    1.5395   -6.1875    0.0000 H   0  0  0  0  0  0  0  0  0  0  0  0
  1  2  1  0  0  0  0
  2  3  1  0  0  0  0
  3  4  2  0  0  0  0
  4  5  1  0  0  0  0
  4  6  1  0  0  0  0
  6  7  1  0  0  0  0
  6  8  2  0  0  0  0
  8  9  1  0  0  0  0
  8 10  1  0  0  0  0
 10 11  1  0  0  0  0
 10 12  2  0  0  0  0
  3 12  1  0  0  0  0
 12 13  1  0  0  0  0
 13 14  1  0  0  0  0
 14 15  2  0  0  0  0
 14 16  1  0  0  0  0
 16 17  1  0  0  0  0
 17 18  2  0  0  0  0
 18 19  1  0  0  0  0
 18 20  1  0  0  0  0
 20 21  2  0  0  0  0
 21 22  1  0  0  0  0
 21 23  1  0  0  0  0
 23 24  2  0  0  0  0
 24 25  1  0  0  0  0
 25 26  2  0  0  0  0
 26 27  1  0  0  0  0
 27 28  1  0  0  0  0
 27 29  2  0  0  0  0
 17 29  1  0  0  0  0
 23 29  1  0  0  0  0
 26 30  1  0  0  0  0
 25 31  1  0  0  0  0
 24 32  1  0  0  0  0
 16 33  1  0  0  0  0
 13 34  1  0  0  0  0
 13 35  1  0  0  0  0
  1 36  1  0  0  0  0
  1 37  1  0  0  0  0
  1 38  1  0  0  0  0
M  END
> <Potency>
34.9853947485592

> <pIC50>
4.456113221475899

> <Outcome>
Inactive

> <is_active>
0

$$$$

  Mrv1921 08232120312D          

 40 43  0  0  0  0            999 V2000
    2.4256    1.1877    0.0000 O   0  0  0  0  0  0  0  0  0  0  0  0
    3.1401    1.6002    0.0000 C   0  0  0  0  0  0  0  0  0  0  0  0
    3.1401    2.4252    0.0000 C   0  0  0  0  0  0  0  0  0  0  0  0
    2.6867    3.1145    0.0000 H   0  0  0  0  0  0  0  0  0  0  0  0
    2.3164    2.4732    0.0000 H   0  0  0  0  0  0  0  0  0  0  0  0
    3.8545    2.8377    0.0000 C   0  0  0  0  0  0  0  0  0  0  0  0
    3.3242    3.4697    0.0000 O   0  0  0  0  0  0  0  0  0  0  0  0
    3.4737    4.2811    0.0000 H   0  0  0  0  0  0  0  0  0  0  0  0
    4.3848    3.4697    0.0000 C   0  0  0  0  0  0  0  0  0  0  0  0
    5.1973    3.3265    0.0000 O   0  0  0  0  0  0  0  0  0  0  0  0
    4.1027    4.2450    0.0000 N   0  0  0  0  0  0  0  0  0  0  0  0
    4.6330    4.8770    0.0000 C   0  0  0  0  0  0  0  0  0  0  0  0
    4.3508    5.6522    0.0000 C   0  0  0  0  0  0  0  0  0  0  0  0
    3.5383    5.7955    0.0000 H   0  0  0  0  0  0  0  0  0  0  0  0
    4.8811    6.2842    0.0000 N   0  0  0  0  0  0  0  0  0  0  0  0
    5.6936    6.1409    0.0000 C   0  0  0  0  0  0  0  0  0  0  0  0
    6.2239    6.7729    0.0000 H   0  0  0  0  0  0  0  0  0  0  0  0
    5.9757    5.3657    0.0000 C   0  0  0  0  0  0  0  0  0  0  0  0
    6.7882    5.2224    0.0000 C   0  0  0  0  0  0  0  0  0  0  0  0
    7.0704    4.4472    0.0000 C   0  0  0  0  0  0  0  0  0  0  0  0
    6.5401    3.8152    0.0000 C   0  0  0  0  0  0  0  0  0  0  0  0
    5.7276    3.9585    0.0000 C   0  0  0  0  0  0  0  0  0  0  0  0
    4.9151    4.1017    0.0000 H   0  0  0  0  0  0  0  0  0  0  0  0
    5.4454    4.7337    0.0000 C   0  0  0  0  0  0  0  0  0  0  0  0
    6.8222    3.0400    0.0000 H   0  0  0  0  0  0  0  0  0  0  0  0
    7.8828    4.3039    0.0000 H   0  0  0  0  0  0  0  0  0  0  0  0
    7.3185    5.8544    0.0000 H   0  0  0  0  0  0  0  0  0  0  0  0
    3.6103    3.5830    0.0000 H   0  0  0  0  0  0  0  0  0  0  0  0
    4.5690    2.4252    0.0000 C   0  0  0  0  0  0  0  0  0  0  0  0
    5.2835    2.8377    0.0000 C   0  0  0  0  0  0  0  0  0  0  0  0
    5.9979    2.4252    0.0000 C   0  0  0  0  0  0  0  0  0  0  0  0
    6.7124    2.8377    0.0000 Cl  0  0  0  0  0  0  0  0  0  0  0  0
    5.9979    1.6002    0.0000 C   0  0  0  0  0  0  0  0  0  0  0  0
    5.2835    1.1877    0.0000 C   0  0  0  0  0  0  0  0  0  0  0  0
    5.2835    0.3627    0.0000 H   0  0  0  0  0  0  0  0  0  0  0  0
    4.5690    1.6002    0.0000 C   0  0  0  0  0  0  0  0  0  0  0  0
    3.8545    1.1877    0.0000 N   0  0  0  0  0  0  0  0  0  0  0  0
    3.8545    0.3627    0.0000 H   0  0  0  0  0  0  0  0  0  0  0  0
    6.7124    1.1877    0.0000 H   0  0  0  0  0  0  0  0  0  0  0  0
    5.9593    3.3109    0.0000 H   0  0  0  0  0  0  0  0  0  0  0  0
  1  2  2  0  0  0  0
  2  3  1  0  0  0  0
  3  4  1  0  0  0  0
  3  5  1  0  0  0  0
  3  6  1  0  0  0  0
  6  7  1  0  0  0  0
  7  8  1  0  0  0  0
  6  9  1  0  0  0  0
  9 10  2  0  0  0  0
  9 11  1  0  0  0  0
 11 12  1  0  0  0  0
 12 13  2  0  0  0  0
 13 14  1  0  0  0  0
 13 15  1  0  0  0  0
 15 16  2  0  0  0  0
 16 17  1  0  0  0  0
 16 18  1  0  0  0  0
 18 19  2  0  0  0  0
 19 20  1  0  0  0  0
 20 21  2  0  0  0  0
 21 22  1  0  0  0  0
 22 23  1  0  0  0  0
 22 24  2  0  0  0  0
 12 24  1  0  0  0  0
 18 24  1  0  0  0  0
 21 25  1  0  0  0  0
 20 26  1  0  0  0  0
 19 27  1  0  0  0  0
 11 28  1  0  0  0  0
  6 29  1  0  0  0  0
 29 30  2  0  0  0  0
 30 31  1  0  0  0  0
 31 32  1  0  0  0  0
 31 33  2  0  0  0  0
 33 34  1  0  0  0  0
 34 35  1  0  0  0  0
 34 36  2  0  0  0  0
 29 36  1  0  0  0  0
 36 37  1  0  0  0  0
  2 37  1  0  0  0  0
 37 38  1  0  0  0  0
 33 39  1  0  0  0  0
 30 40  1  0  0  0  0
M  END
> <Potency>
20.7559002851557

> <pIC50>
4.6828584243960085

> <Outcome>
Inactive

> <is_active>
0

$$$$

  Mrv1921 08232120312D          

 75 79  0  0  0  0            999 V2000
    0.0000   -5.7750    0.0000 C   0  0  0  0  0  0  0  0  0  0  0  0
    0.0000   -4.9500    0.0000 C   0  0  0  0  0  0  0  0  0  0  0  0
    0.8250   -4.9500    0.0000 C   0  0  0  0  0  0  0  0  0  0  0  0
    1.5872   -5.2657    0.0000 H   0  0  0  0  0  0  0  0  0  0  0  0
    1.4084   -4.3666    0.0000 H   0  0  0  0  0  0  0  0  0  0  0  0
    0.5093   -4.1878    0.0000 H   0  0  0  0  0  0  0  0  0  0  0  0
   -0.8250   -4.9500    0.0000 C   0  0  0  0  0  0  0  0  0  0  0  0
   -0.5093   -4.1878    0.0000 H   0  0  0  0  0  0  0  0  0  0  0  0
   -1.4084   -4.3666    0.0000 H   0  0  0  0  0  0  0  0  0  0  0  0
   -1.5872   -5.2657    0.0000 H   0  0  0  0  0  0  0  0  0  0  0  0
    0.0000   -4.1250    0.0000 C   0  0  0  0  0  0  0  0  0  0  0  0
   -0.7145   -3.7125    0.0000 C   0  0  0  0  0  0  0  0  0  0  0  0
   -1.4719   -3.3856    0.0000 H   0  0  0  0  0  0  0  0  0  0  0  0
   -0.7145   -2.8875    0.0000 C   0  0  0  0  0  0  0  0  0  0  0  0
   -0.7324   -2.0627    0.0000 H   0  0  0  0  0  0  0  0  0  0  0  0
    0.0000   -2.4750    0.0000 C   0  0  0  0  0  0  0  0  0  0  0  0
    0.0000   -1.6500    0.0000 N   0  0  0  0  0  0  0  0  0  0  0  0
   -0.7145   -1.2375    0.0000 C   0  0  0  0  0  0  0  0  0  0  0  0
   -0.7145   -0.4125    0.0000 O   0  0  0  0  0  0  0  0  0  0  0  0
   -1.4289   -1.6500    0.0000 C   0  0  0  0  0  0  0  0  0  0  0  0
   -1.5152   -2.4705    0.0000 C   0  0  0  0  0  0  0  0  0  0  0  0
   -2.1283   -1.9184    0.0000 H   0  0  0  0  0  0  0  0  0  0  0  0
   -2.3221   -2.6420    0.0000 C   0  0  0  0  0  0  0  0  0  0  0  0
   -2.6577   -3.3957    0.0000 C   0  0  0  0  0  0  0  0  0  0  0  0
   -3.4114   -3.0601    0.0000 O   0  0  0  0  0  0  0  0  0  0  0  0
   -3.4976   -2.2396    0.0000 H   0  0  0  0  0  0  0  0  0  0  0  0
   -1.9040   -3.7312    0.0000 C   0  0  0  0  0  0  0  0  0  0  0  0
   -2.0093   -2.9130    0.0000 H   0  0  0  0  0  0  0  0  0  0  0  0
   -1.0847   -3.8274    0.0000 H   0  0  0  0  0  0  0  0  0  0  0  0
   -2.2396   -4.4849    0.0000 O   0  0  0  0  0  0  0  0  0  0  0  0
   -2.9933   -4.1494    0.0000 C   0  0  0  0  0  0  0  0  0  0  0  0
   -3.8081   -4.0203    0.0000 H   0  0  0  0  0  0  0  0  0  0  0  0
   -3.5125   -4.7905    0.0000 H   0  0  0  0  0  0  0  0  0  0  0  0
   -2.7346   -1.9275    0.0000 O   0  0  0  0  0  0  0  0  0  0  0  0
   -2.1826   -1.3144    0.0000 N   0  0  0  0  0  0  0  0  0  0  0  0
    0.7145   -1.2375    0.0000 C   0  0  0  0  0  0  0  0  0  0  0  0
    1.4289   -1.6500    0.0000 C   0  0  0  0  0  0  0  0  0  0  0  0
    1.4289   -2.4750    0.0000 O   0  0  0  0  0  0  0  0  0  0  0  0
    2.1434   -1.2375    0.0000 N   0  0  0  0  0  0  0  0  0  0  0  0
    2.8579   -1.6500    0.0000 C   0  0  0  0  0  0  0  0  0  0  0  0
    3.5724   -1.2375    0.0000 C   0  0  0  0  0  0  0  0  0  0  0  0
    4.2868   -1.6500    0.0000 C   0  0  0  0  0  0  0  0  0  0  0  0
    5.0013   -1.2375    0.0000 C   0  0  0  0  0  0  0  0  0  0  0  0
    5.0013   -0.4125    0.0000 H   0  0  0  0  0  0  0  0  0  0  0  0
    5.7158   -1.6500    0.0000 C   0  0  0  0  0  0  0  0  0  0  0  0
    6.4302   -1.2375    0.0000 H   0  0  0  0  0  0  0  0  0  0  0  0
    5.7158   -2.4750    0.0000 C   0  0  0  0  0  0  0  0  0  0  0  0
    6.4302   -2.8875    0.0000 H   0  0  0  0  0  0  0  0  0  0  0  0
    5.0013   -2.8875    0.0000 C   0  0  0  0  0  0  0  0  0  0  0  0
    5.0013   -3.7125    0.0000 F   0  0  0  0  0  0  0  0  0  0  0  0
    4.2868   -2.4750    0.0000 C   0  0  0  0  0  0  0  0  0  0  0  0
    3.5724   -2.8875    0.0000 H   0  0  0  0  0  0  0  0  0  0  0  0
    3.9426   -0.5003    0.0000 H   0  0  0  0  0  0  0  0  0  0  0  0
    3.2021   -0.5003    0.0000 H   0  0  0  0  0  0  0  0  0  0  0  0
    2.4876   -2.3872    0.0000 H   0  0  0  0  0  0  0  0  0  0  0  0
    3.2281   -2.3872    0.0000 H   0  0  0  0  0  0  0  0  0  0  0  0
    2.1434   -0.4125    0.0000 H   0  0  0  0  0  0  0  0  0  0  0  0
    0.7145   -0.4125    0.0000 C   0  0  0  0  0  0  0  0  0  0  0  0
    0.0000    0.0000    0.0000 C   0  0  0  0  0  0  0  0  0  0  0  0
    0.0000   -0.8250    0.0000 H   0  0  0  0  0  0  0  0  0  0  0  0
    0.0000    0.8250    0.0000 C   0  0  0  0  0  0  0  0  0  0  0  0
   -0.7145    1.2375    0.0000 H   0  0  0  0  0  0  0  0  0  0  0  0
    0.7145    1.2375    0.0000 C   0  0  0  0  0  0  0  0  0  0  0  0
    0.7145    2.0625    0.0000 H   0  0  0  0  0  0  0  0  0  0  0  0
    1.4289    0.8250    0.0000 N   0  0  0  0  0  0  0  0  0  0  0  0
    1.4289    0.0000    0.0000 C   0  0  0  0  0  0  0  0  0  0  0  0
    1.4289   -0.8250    0.0000 H   0  0  0  0  0  0  0  0  0  0  0  0
    0.7145   -2.0625    0.0000 H   0  0  0  0  0  0  0  0  0  0  0  0
    0.7145   -2.8875    0.0000 C   0  0  0  0  0  0  0  0  0  0  0  0
    1.4289   -3.3000    0.0000 H   0  0  0  0  0  0  0  0  0  0  0  0
    0.7145   -3.7125    0.0000 C   0  0  0  0  0  0  0  0  0  0  0  0
    0.0000   -3.3000    0.0000 H   0  0  0  0  0  0  0  0  0  0  0  0
   -0.8250   -5.7750    0.0000 H   0  0  0  0  0  0  0  0  0  0  0  0
    0.0000   -6.6000    0.0000 H   0  0  0  0  0  0  0  0  0  0  0  0
    0.8250   -5.7750    0.0000 H   0  0  0  0  0  0  0  0  0  0  0  0
  1  2  1  0  0  0  0
  2  3  1  0  0  0  0
  3  4  1  0  0  0  0
  3  5  1  0  0  0  0
  3  6  1  0  0  0  0
  2  7  1  0  0  0  0
  7  8  1  0  0  0  0
  7  9  1  0  0  0  0
  7 10  1  0  0  0  0
  2 11  1  0  0  0  0
 11 12  2  0  0  0  0
 12 13  1  0  0  0  0
 12 14  1  0  0  0  0
 14 15  1  0  0  0  0
 14 16  2  0  0  0  0
 16 17  1  0  0  0  0
 17 18  1  0  0  0  0
 18 19  2  0  0  0  0
 18 20  1  0  0  0  0
 20 21  1  0  0  0  0
 21 22  1  0  0  0  0
 21 23  2  0  0  0  0
 23 24  1  0  0  0  0
 24 25  1  0  0  0  0
 25 26  1  0  0  0  0
 24 27  1  0  0  0  0
 27 28  1  0  0  0  0
 27 29  1  0  0  0  0
 27 30  1  0  0  0  0
 30 31  1  0  0  0  0
 24 31  1  0  0  0  0
 31 32  1  0  0  0  0
 31 33  1  0  0  0  0
 23 34  1  0  0  0  0
 34 35  1  0  0  0  0
 20 35  2  0  0  0  0
 17 36  1  0  0  0  0
 36 37  1  0  0  0  0
 37 38  2  0  0  0  0
 37 39  1  0  0  0  0
 39 40  1  0  0  0  0
 40 41  1  0  0  0  0
 41 42  1  0  0  0  0
 42 43  2  0  0  0  0
 43 44  1  0  0  0  0
 43 45  1  0  0  0  0
 45 46  1  0  0  0  0
 45 47  2  0  0  0  0
 47 48  1  0  0  0  0
 47 49  1  0  0  0  0
 49 50  1  0  0  0  0
 49 51  2  0  0  0  0
 42 51  1  0  0  0  0
 51 52  1  0  0  0  0
 41 53  1  0  0  0  0
 41 54  1  0  0  0  0
 40 55  1  0  0  0  0
 40 56  1  0  0  0  0
 39 57  1  0  0  0  0
 36 58  1  0  0  0  0
 58 59  2  0  0  0  0
 59 60  1  0  0  0  0
 59 61  1  0  0  0  0
 61 62  1  0  0  0  0
 61 63  2  0  0  0  0
 63 64  1  0  0  0  0
 63 65  1  0  0  0  0
 65 66  2  0  0  0  0
 58 66  1  0  0  0  0
 66 67  1  0  0  0  0
 36 68  1  0  0  0  0
 16 69  1  0  0  0  0
 69 70  1  0  0  0  0
 69 71  2  0  0  0  0
 11 71  1  0  0  0  0
 71 72  1  0  0  0  0
  1 73  1  0  0  0  0
  1 74  1  0  0  0  0
  1 75  1  0  0  0  0
M  END
> <Potency>
26.1619737288461

> <pIC50>
4.582329494781567

> <Outcome>
Inactive

> <is_active>
0

$$$$

  Mrv1921 08232120312D          

 85 89  0  0  0  0            999 V2000
    0.0000   -5.7750    0.0000 C   0  0  0  0  0  0  0  0  0  0  0  0
    0.0000   -4.9500    0.0000 C   0  0  0  0  0  0  0  0  0  0  0  0
    0.8250   -4.9500    0.0000 C   0  0  0  0  0  0  0  0  0  0  0  0
    1.5872   -5.2657    0.0000 H   0  0  0  0  0  0  0  0  0  0  0  0
    1.4084   -4.3666    0.0000 H   0  0  0  0  0  0  0  0  0  0  0  0
    0.5093   -4.1878    0.0000 H   0  0  0  0  0  0  0  0  0  0  0  0
   -0.8250   -4.9500    0.0000 C   0  0  0  0  0  0  0  0  0  0  0  0
   -0.5093   -4.1878    0.0000 H   0  0  0  0  0  0  0  0  0  0  0  0
   -1.4084   -4.3666    0.0000 H   0  0  0  0  0  0  0  0  0  0  0  0
   -1.5872   -5.2657    0.0000 H   0  0  0  0  0  0  0  0  0  0  0  0
    0.0000   -4.1250    0.0000 C   0  0  0  0  0  0  0  0  0  0  0  0
   -0.7145   -3.7125    0.0000 C   0  0  0  0  0  0  0  0  0  0  0  0
   -1.4719   -3.3856    0.0000 H   0  0  0  0  0  0  0  0  0  0  0  0
   -0.7145   -2.8875    0.0000 C   0  0  0  0  0  0  0  0  0  0  0  0
   -0.7324   -2.0627    0.0000 H   0  0  0  0  0  0  0  0  0  0  0  0
    0.0000   -2.4750    0.0000 C   0  0  0  0  0  0  0  0  0  0  0  0
    0.0000   -1.6500    0.0000 N   0  0  0  0  0  0  0  0  0  0  0  0
   -0.7145   -1.2375    0.0000 C   0  0  0  0  0  0  0  0  0  0  0  0
   -0.7145   -0.4125    0.0000 O   0  0  0  0  0  0  0  0  0  0  0  0
   -1.4289   -1.6500    0.0000 C   0  0  0  0  0  0  0  0  0  0  0  0
   -1.5152   -2.4705    0.0000 C   0  0  0  0  0  0  0  0  0  0  0  0
   -2.1283   -1.9184    0.0000 H   0  0  0  0  0  0  0  0  0  0  0  0
   -2.3221   -2.6420    0.0000 N   0  0  0  0  0  0  0  0  0  0  0  0
   -2.6577   -3.3957    0.0000 C   0  0  0  0  0  0  0  0  0  0  0  0
   -3.4782   -3.4819    0.0000 C   0  0  0  0  0  0  0  0  0  0  0  0
   -3.8137   -4.2356    0.0000 N   0  0  0  0  0  0  0  0  0  0  0  0
   -3.3288   -4.9030    0.0000 C   0  0  0  0  0  0  0  0  0  0  0  0
   -2.5569   -5.1942    0.0000 H   0  0  0  0  0  0  0  0  0  0  0  0
   -2.6343   -4.4577    0.0000 H   0  0  0  0  0  0  0  0  0  0  0  0
   -3.6644   -5.6567    0.0000 C   0  0  0  0  0  0  0  0  0  0  0  0
   -3.5306   -6.4708    0.0000 H   0  0  0  0  0  0  0  0  0  0  0  0
   -2.9315   -6.0355    0.0000 H   0  0  0  0  0  0  0  0  0  0  0  0
   -4.4849   -5.7429    0.0000 O   0  0  0  0  0  0  0  0  0  0  0  0
   -4.9698   -5.0755    0.0000 C   0  0  0  0  0  0  0  0  0  0  0  0
   -5.7417   -4.7843    0.0000 H   0  0  0  0  0  0  0  0  0  0  0  0
   -5.6643   -5.5208    0.0000 H   0  0  0  0  0  0  0  0  0  0  0  0
   -4.6342   -4.3218    0.0000 C   0  0  0  0  0  0  0  0  0  0  0  0
   -4.7680   -3.5078    0.0000 H   0  0  0  0  0  0  0  0  0  0  0  0
   -5.3671   -3.9430    0.0000 H   0  0  0  0  0  0  0  0  0  0  0  0
   -3.6120   -2.6678    0.0000 H   0  0  0  0  0  0  0  0  0  0  0  0
   -4.2111   -3.1031    0.0000 H   0  0  0  0  0  0  0  0  0  0  0  0
   -2.5239   -4.2098    0.0000 H   0  0  0  0  0  0  0  0  0  0  0  0
   -1.9248   -3.7745    0.0000 H   0  0  0  0  0  0  0  0  0  0  0  0
   -2.7346   -1.9275    0.0000 N   0  0  0  0  0  0  0  0  0  0  0  0
   -2.1826   -1.3144    0.0000 N   0  0  0  0  0  0  0  0  0  0  0  0
    0.7145   -1.2375    0.0000 C   0  0  0  0  0  0  0  0  0  0  0  0
    1.4289   -1.6500    0.0000 C   0  0  0  0  0  0  0  0  0  0  0  0
    1.4289   -2.4750    0.0000 O   0  0  0  0  0  0  0  0  0  0  0  0
    2.1434   -1.2375    0.0000 N   0  0  0  0  0  0  0  0  0  0  0  0
    2.8579   -1.6500    0.0000 C   0  0  0  0  0  0  0  0  0  0  0  0
    3.5724   -1.2375    0.0000 C   0  0  0  0  0  0  0  0  0  0  0  0
    4.2868   -1.6500    0.0000 C   0  0  0  0  0  0  0  0  0  0  0  0
    5.0013   -1.2375    0.0000 C   0  0  0  0  0  0  0  0  0  0  0  0
    5.0013   -0.4125    0.0000 H   0  0  0  0  0  0  0  0  0  0  0  0
    5.7158   -1.6500    0.0000 C   0  0  0  0  0  0  0  0  0  0  0  0
    6.4302   -1.2375    0.0000 H   0  0  0  0  0  0  0  0  0  0  0  0
    5.7158   -2.4750    0.0000 C   0  0  0  0  0  0  0  0  0  0  0  0
    6.4302   -2.8875    0.0000 H   0  0  0  0  0  0  0  0  0  0  0  0
    5.0013   -2.8875    0.0000 C   0  0  0  0  0  0  0  0  0  0  0  0
    5.0013   -3.7125    0.0000 F   0  0  0  0  0  0  0  0  0  0  0  0
    4.2868   -2.4750    0.0000 C   0  0  0  0  0  0  0  0  0  0  0  0
    3.5724   -2.8875    0.0000 H   0  0  0  0  0  0  0  0  0  0  0  0
    3.9426   -0.5003    0.0000 H   0  0  0  0  0  0  0  0  0  0  0  0
    3.2021   -0.5003    0.0000 H   0  0  0  0  0  0  0  0  0  0  0  0
    2.4876   -2.3872    0.0000 H   0  0  0  0  0  0  0  0  0  0  0  0
    3.2281   -2.3872    0.0000 H   0  0  0  0  0  0  0  0  0  0  0  0
    2.1434   -0.4125    0.0000 H   0  0  0  0  0  0  0  0  0  0  0  0
    0.7145   -0.4125    0.0000 C   0  0  0  0  0  0  0  0  0  0  0  0
    0.0000    0.0000    0.0000 C   0  0  0  0  0  0  0  0  0  0  0  0
    0.0000   -0.8250    0.0000 H   0  0  0  0  0  0  0  0  0  0  0  0
    0.0000    0.8250    0.0000 C   0  0  0  0  0  0  0  0  0  0  0  0
   -0.7145    1.2375    0.0000 H   0  0  0  0  0  0  0  0  0  0  0  0
    0.7145    1.2375    0.0000 C   0  0  0  0  0  0  0  0  0  0  0  0
    0.7145    2.0625    0.0000 H   0  0  0  0  0  0  0  0  0  0  0  0
    1.4289    0.8250    0.0000 N   0  0  0  0  0  0  0  0  0  0  0  0
    1.4289    0.0000    0.0000 C   0  0  0  0  0  0  0  0  0  0  0  0
    1.4289   -0.8250    0.0000 H   0  0  0  0  0  0  0  0  0  0  0  0
    0.7145   -2.0625    0.0000 H   0  0  0  0  0  0  0  0  0  0  0  0
    0.7145   -2.8875    0.0000 C   0  0  0  0  0  0  0  0  0  0  0  0
    1.4289   -3.3000    0.0000 H   0  0  0  0  0  0  0  0  0  0  0  0
    0.7145   -3.7125    0.0000 C   0  0  0  0  0  0  0  0  0  0  0  0
    0.0000   -3.3000    0.0000 H   0  0  0  0  0  0  0  0  0  0  0  0
   -0.8250   -5.7750    0.0000 H   0  0  0  0  0  0  0  0  0  0  0  0
    0.0000   -6.6000    0.0000 H   0  0  0  0  0  0  0  0  0  0  0  0
    0.8250   -5.7750    0.0000 H   0  0  0  0  0  0  0  0  0  0  0  0
  1  2  1  0  0  0  0
  2  3  1  0  0  0  0
  3  4  1  0  0  0  0
  3  5  1  0  0  0  0
  3  6  1  0  0  0  0
  2  7  1  0  0  0  0
  7  8  1  0  0  0  0
  7  9  1  0  0  0  0
  7 10  1  0  0  0  0
  2 11  1  0  0  0  0
 11 12  2  0  0  0  0
 12 13  1  0  0  0  0
 12 14  1  0  0  0  0
 14 15  1  0  0  0  0
 14 16  2  0  0  0  0
 16 17  1  0  0  0  0
 17 18  1  0  0  0  0
 18 19  2  0  0  0  0
 18 20  1  0  0  0  0
 20 21  2  0  0  0  0
 21 22  1  0  0  0  0
 21 23  1  0  0  0  0
 23 24  1  0  0  0  0
 24 25  1  0  0  0  0
 25 26  1  0  0  0  0
 26 27  1  0  0  0  0
 27 28  1  0  0  0  0
 27 29  1  0  0  0  0
 27 30  1  0  0  0  0
 30 31  1  0  0  0  0
 30 32  1  0  0  0  0
 30 33  1  0  0  0  0
 33 34  1  0  0  0  0
 34 35  1  0  0  0  0
 34 36  1  0  0  0  0
 34 37  1  0  0  0  0
 26 37  1  0  0  0  0
 37 38  1  0  0  0  0
 37 39  1  0  0  0  0
 25 40  1  0  0  0  0
 25 41  1  0  0  0  0
 24 42  1  0  0  0  0
 24 43  1  0  0  0  0
 23 44  1  0  0  0  0
 44 45  2  0  0  0  0
 20 45  1  0  0  0  0
 17 46  1  0  0  0  0
 46 47  1  0  0  0  0
 47 48  2  0  0  0  0
 47 49  1  0  0  0  0
 49 50  1  0  0  0  0
 50 51  1  0  0  0  0
 51 52  1  0  0  0  0
 52 53  2  0  0  0  0
 53 54  1  0  0  0  0
 53 55  1  0  0  0  0
 55 56  1  0  0  0  0
 55 57  2  0  0  0  0
 57 58  1  0  0  0  0
 57 59  1  0  0  0  0
 59 60  1  0  0  0  0
 59 61  2  0  0  0  0
 52 61  1  0  0  0  0
 61 62  1  0  0  0  0
 51 63  1  0  0  0  0
 51 64  1  0  0  0  0
 50 65  1  0  0  0  0
 50 66  1  0  0  0  0
 49 67  1  0  0  0  0
 46 68  1  0  0  0  0
 68 69  2  0  0  0  0
 69 70  1  0  0  0  0
 69 71  1  0  0  0  0
 71 72  1  0  0  0  0
 71 73  2  0  0  0  0
 73 74  1  0  0  0  0
 73 75  1  0  0  0  0
 75 76  2  0  0  0  0
 68 76  1  0  0  0  0
 76 77  1  0  0  0  0
 46 78  1  0  0  0  0
 16 79  1  0  0  0  0
 79 80  1  0  0  0  0
 79 81  2  0  0  0  0
 11 81  1  0  0  0  0
 81 82  1  0  0  0  0
  1 83  1  0  0  0  0
  1 84  1  0  0  0  0
  1 85  1  0  0  0  0
M  END
> <Potency>
10.4905361420152

> <pIC50>
4.979202315660719

> <Outcome>
Inactive

> <is_active>
0

$$$$

  Mrv1921 08232120312D          

 78 81  0  0  0  0            999 V2000
   -6.1659   -3.0037    0.0000 C   0  0  0  0  0  0  0  0  0  0  0  0
   -5.3455   -3.0899    0.0000 C   0  0  0  0  0  0  0  0  0  0  0  0
   -4.8605   -2.4225    0.0000 O   0  0  0  0  0  0  0  0  0  0  0  0
   -4.0401   -2.5087    0.0000 C   0  0  0  0  0  0  0  0  0  0  0  0
   -3.7045   -3.2624    0.0000 O   0  0  0  0  0  0  0  0  0  0  0  0
   -3.5551   -1.8413    0.0000 C   0  0  0  0  0  0  0  0  0  0  0  0
   -2.7346   -1.9275    0.0000 N   0  0  0  0  0  0  0  0  0  0  0  0
   -2.1826   -1.3144    0.0000 C   0  0  0  0  0  0  0  0  0  0  0  0
   -2.3541   -0.5075    0.0000 H   0  0  0  0  0  0  0  0  0  0  0  0
   -1.4289   -1.6500    0.0000 C   0  0  0  0  0  0  0  0  0  0  0  0
   -0.7145   -1.2375    0.0000 C   0  0  0  0  0  0  0  0  0  0  0  0
   -0.7145   -0.4125    0.0000 O   0  0  0  0  0  0  0  0  0  0  0  0
    0.0000   -1.6500    0.0000 N   0  0  0  0  0  0  0  0  0  0  0  0
    0.0000   -2.4750    0.0000 C   0  0  0  0  0  0  0  0  0  0  0  0
    0.7145   -2.8875    0.0000 C   0  0  0  0  0  0  0  0  0  0  0  0
    0.7145   -2.0625    0.0000 H   0  0  0  0  0  0  0  0  0  0  0  0
    0.7145   -3.7125    0.0000 C   0  0  0  0  0  0  0  0  0  0  0  0
    1.4289   -4.1250    0.0000 H   0  0  0  0  0  0  0  0  0  0  0  0
    0.0000   -4.1250    0.0000 C   0  0  0  0  0  0  0  0  0  0  0  0
    0.0000   -4.9500    0.0000 C   0  0  0  0  0  0  0  0  0  0  0  0
    0.0000   -5.7750    0.0000 C   0  0  0  0  0  0  0  0  0  0  0  0
   -0.8250   -5.7750    0.0000 H   0  0  0  0  0  0  0  0  0  0  0  0
    0.0000   -6.6000    0.0000 H   0  0  0  0  0  0  0  0  0  0  0  0
    0.8250   -5.7750    0.0000 H   0  0  0  0  0  0  0  0  0  0  0  0
   -0.8250   -4.9500    0.0000 C   0  0  0  0  0  0  0  0  0  0  0  0
   -0.5093   -4.1878    0.0000 H   0  0  0  0  0  0  0  0  0  0  0  0
   -1.4084   -4.3666    0.0000 H   0  0  0  0  0  0  0  0  0  0  0  0
   -1.5872   -5.2657    0.0000 H   0  0  0  0  0  0  0  0  0  0  0  0
    0.8250   -4.9500    0.0000 C   0  0  0  0  0  0  0  0  0  0  0  0
    1.5872   -5.2657    0.0000 H   0  0  0  0  0  0  0  0  0  0  0  0
    1.4084   -4.3666    0.0000 H   0  0  0  0  0  0  0  0  0  0  0  0
    0.5093   -4.1878    0.0000 H   0  0  0  0  0  0  0  0  0  0  0  0
   -0.7145   -3.7125    0.0000 C   0  0  0  0  0  0  0  0  0  0  0  0
   -1.4719   -3.3856    0.0000 H   0  0  0  0  0  0  0  0  0  0  0  0
   -0.7145   -2.8875    0.0000 C   0  0  0  0  0  0  0  0  0  0  0  0
   -0.7324   -2.0627    0.0000 H   0  0  0  0  0  0  0  0  0  0  0  0
    0.7145   -1.2375    0.0000 C   0  0  0  0  0  0  0  0  0  0  0  0
    1.4289   -1.6500    0.0000 C   0  0  0  0  0  0  0  0  0  0  0  0
    1.4289   -2.4750    0.0000 O   0  0  0  0  0  0  0  0  0  0  0  0
    2.1434   -1.2375    0.0000 N   0  0  0  0  0  0  0  0  0  0  0  0
    2.8579   -1.6500    0.0000 C   0  0  0  0  0  0  0  0  0  0  0  0
    3.5724   -1.2375    0.0000 C   0  0  0  0  0  0  0  0  0  0  0  0
    4.2868   -1.6500    0.0000 C   0  0  0  0  0  0  0  0  0  0  0  0
    5.0013   -1.2375    0.0000 C   0  0  0  0  0  0  0  0  0  0  0  0
    5.0013   -0.4125    0.0000 H   0  0  0  0  0  0  0  0  0  0  0  0
    5.7158   -1.6500    0.0000 C   0  0  0  0  0  0  0  0  0  0  0  0
    6.4302   -1.2375    0.0000 H   0  0  0  0  0  0  0  0  0  0  0  0
    5.7158   -2.4750    0.0000 C   0  0  0  0  0  0  0  0  0  0  0  0
    6.4302   -2.8875    0.0000 H   0  0  0  0  0  0  0  0  0  0  0  0
    5.0013   -2.8875    0.0000 C   0  0  0  0  0  0  0  0  0  0  0  0
    5.0013   -3.7125    0.0000 F   0  0  0  0  0  0  0  0  0  0  0  0
    4.2868   -2.4750    0.0000 C   0  0  0  0  0  0  0  0  0  0  0  0
    3.5724   -2.8875    0.0000 H   0  0  0  0  0  0  0  0  0  0  0  0
    3.9426   -0.5003    0.0000 H   0  0  0  0  0  0  0  0  0  0  0  0
    3.2021   -0.5003    0.0000 H   0  0  0  0  0  0  0  0  0  0  0  0
    2.4876   -2.3872    0.0000 H   0  0  0  0  0  0  0  0  0  0  0  0
    3.2281   -2.3872    0.0000 H   0  0  0  0  0  0  0  0  0  0  0  0
    2.5559   -0.5230    0.0000 H   0  0  0  0  0  0  0  0  0  0  0  0
    0.7145   -0.4125    0.0000 C   0  0  0  0  0  0  0  0  0  0  0  0
    0.0000    0.0000    0.0000 C   0  0  0  0  0  0  0  0  0  0  0  0
    0.0000   -0.8250    0.0000 H   0  0  0  0  0  0  0  0  0  0  0  0
    0.0000    0.8250    0.0000 C   0  0  0  0  0  0  0  0  0  0  0  0
   -0.7145    1.2375    0.0000 H   0  0  0  0  0  0  0  0  0  0  0  0
    0.7145    1.2375    0.0000 C   0  0  0  0  0  0  0  0  0  0  0  0
    0.7145    2.0625    0.0000 H   0  0  0  0  0  0  0  0  0  0  0  0
    1.4289    0.8250    0.0000 N   0  0  0  0  0  0  0  0  0  0  0  0
    1.4289    0.0000    0.0000 C   0  0  0  0  0  0  0  0  0  0  0  0
    2.2539    0.0000    0.0000 H   0  0  0  0  0  0  0  0  0  0  0  0
    1.4289   -0.8250    0.0000 H   0  0  0  0  0  0  0  0  0  0  0  0
   -1.5152   -2.4705    0.0000 N   0  0  0  0  0  0  0  0  0  0  0  0
   -2.3221   -2.6420    0.0000 N   0  0  0  0  0  0  0  0  0  0  0  0
   -3.5167   -1.0172    0.0000 H   0  0  0  0  0  0  0  0  0  0  0  0
   -4.1932   -1.3184    0.0000 H   0  0  0  0  0  0  0  0  0  0  0  0
   -5.3838   -3.9140    0.0000 H   0  0  0  0  0  0  0  0  0  0  0  0
   -4.7073   -3.6129    0.0000 H   0  0  0  0  0  0  0  0  0  0  0  0
   -6.0797   -2.1832    0.0000 H   0  0  0  0  0  0  0  0  0  0  0  0
   -6.9864   -2.9175    0.0000 H   0  0  0  0  0  0  0  0  0  0  0  0
   -6.2522   -3.8242    0.0000 H   0  0  0  0  0  0  0  0  0  0  0  0
  1  2  1  0  0  0  0
  2  3  1  0  0  0  0
  3  4  1  0  0  0  0
  4  5  2  0  0  0  0
  4  6  1  0  0  0  0
  6  7  1  0  0  0  0
  7  8  1  0  0  0  0
  8  9  1  0  0  0  0
  8 10  2  0  0  0  0
 10 11  1  0  0  0  0
 11 12  2  0  0  0  0
 11 13  1  0  0  0  0
 13 14  1  0  0  0  0
 14 15  2  0  0  0  0
 15 16  1  0  0  0  0
 15 17  1  0  0  0  0
 17 18  1  0  0  0  0
 17 19  2  0  0  0  0
 19 20  1  0  0  0  0
 20 21  1  0  0  0  0
 21 22  1  0  0  0  0
 21 23  1  0  0  0  0
 21 24  1  0  0  0  0
 20 25  1  0  0  0  0
 25 26  1  0  0  0  0
 25 27  1  0  0  0  0
 25 28  1  0  0  0  0
 20 29  1  0  0  0  0
 29 30  1  0  0  0  0
 29 31  1  0  0  0  0
 29 32  1  0  0  0  0
 19 33  1  0  0  0  0
 33 34  1  0  0  0  0
 33 35  2  0  0  0  0
 14 35  1  0  0  0  0
 35 36  1  0  0  0  0
 13 37  1  0  0  0  0
 37 38  1  0  0  0  0
 38 39  2  0  0  0  0
 38 40  1  0  0  0  0
 40 41  1  0  0  0  0
 41 42  1  0  0  0  0
 42 43  1  0  0  0  0
 43 44  2  0  0  0  0
 44 45  1  0  0  0  0
 44 46  1  0  0  0  0
 46 47  1  0  0  0  0
 46 48  2  0  0  0  0
 48 49  1  0  0  0  0
 48 50  1  0  0  0  0
 50 51  1  0  0  0  0
 50 52  2  0  0  0  0
 43 52  1  0  0  0  0
 52 53  1  0  0  0  0
 42 54  1  0  0  0  0
 42 55  1  0  0  0  0
 41 56  1  0  0  0  0
 41 57  1  0  0  0  0
 40 58  1  0  0  0  0
 37 59  1  0  0  0  0
 59 60  2  0  0  0  0
 60 61  1  0  0  0  0
 60 62  1  0  0  0  0
 62 63  1  0  0  0  0
 62 64  2  0  0  0  0
 64 65  1  0  0  0  0
 64 66  1  0  0  0  0
 66 67  2  0  0  0  0
 59 67  1  0  0  0  0
 67 68  1  0  0  0  0
 37 69  1  0  0  0  0
 10 70  1  0  0  0  0
 70 71  2  0  0  0  0
  7 71  1  0  0  0  0
  6 72  1  0  0  0  0
  6 73  1  0  0  0  0
  2 74  1  0  0  0  0
  2 75  1  0  0  0  0
  1 76  1  0  0  0  0
  1 77  1  0  0  0  0
  1 78  1  0  0  0  0
M  END
> <Potency>
44.0091689160607

> <pIC50>
4.356456832722599

> <Outcome>
Inactive

> <is_active>
0

$$$$

  Mrv1921 08232120312D          

 85 89  0  0  0  0            999 V2000
   -2.3541   -0.5075    0.0000 C   0  0  0  0  0  0  0  0  0  0  0  0
   -2.1826   -1.3144    0.0000 N   0  0  0  0  0  0  0  0  0  0  0  0
   -2.7346   -1.9275    0.0000 N   0  0  0  0  0  0  0  0  0  0  0  0
   -2.3221   -2.6420    0.0000 C   0  0  0  0  0  0  0  0  0  0  0  0
   -2.6577   -3.3957    0.0000 C   0  0  0  0  0  0  0  0  0  0  0  0
   -2.1728   -4.0631    0.0000 O   0  0  0  0  0  0  0  0  0  0  0  0
   -3.4782   -3.4819    0.0000 N   0  0  0  0  0  0  0  0  0  0  0  0
   -3.8137   -4.2356    0.0000 C   0  0  0  0  0  0  0  0  0  0  0  0
   -3.6799   -5.0497    0.0000 H   0  0  0  0  0  0  0  0  0  0  0  0
   -3.0809   -4.6144    0.0000 H   0  0  0  0  0  0  0  0  0  0  0  0
   -4.6342   -4.3218    0.0000 C   0  0  0  0  0  0  0  0  0  0  0  0
   -5.2723   -4.8447    0.0000 H   0  0  0  0  0  0  0  0  0  0  0  0
   -4.5958   -5.1459    0.0000 H   0  0  0  0  0  0  0  0  0  0  0  0
   -5.1191   -3.6544    0.0000 O   0  0  0  0  0  0  0  0  0  0  0  0
   -4.7836   -2.9007    0.0000 C   0  0  0  0  0  0  0  0  0  0  0  0
   -4.9174   -2.0866    0.0000 H   0  0  0  0  0  0  0  0  0  0  0  0
   -5.5165   -2.5219    0.0000 H   0  0  0  0  0  0  0  0  0  0  0  0
   -3.9631   -2.8145    0.0000 C   0  0  0  0  0  0  0  0  0  0  0  0
   -3.3250   -2.2916    0.0000 H   0  0  0  0  0  0  0  0  0  0  0  0
   -4.0015   -1.9904    0.0000 H   0  0  0  0  0  0  0  0  0  0  0  0
   -1.5152   -2.4705    0.0000 C   0  0  0  0  0  0  0  0  0  0  0  0
   -1.6265   -3.2879    0.0000 H   0  0  0  0  0  0  0  0  0  0  0  0
   -1.4289   -1.6500    0.0000 C   0  0  0  0  0  0  0  0  0  0  0  0
   -0.7145   -1.2375    0.0000 C   0  0  0  0  0  0  0  0  0  0  0  0
   -0.7145   -0.4125    0.0000 O   0  0  0  0  0  0  0  0  0  0  0  0
    0.0000   -1.6500    0.0000 N   0  0  0  0  0  0  0  0  0  0  0  0
    0.0000   -2.4750    0.0000 C   0  0  0  0  0  0  0  0  0  0  0  0
    0.7145   -2.8875    0.0000 C   0  0  0  0  0  0  0  0  0  0  0  0
    0.7145   -2.0625    0.0000 H   0  0  0  0  0  0  0  0  0  0  0  0
    0.7145   -3.7125    0.0000 C   0  0  0  0  0  0  0  0  0  0  0  0
    1.4289   -4.1250    0.0000 H   0  0  0  0  0  0  0  0  0  0  0  0
    0.0000   -4.1250    0.0000 C   0  0  0  0  0  0  0  0  0  0  0  0
    0.0000   -4.9500    0.0000 C   0  0  0  0  0  0  0  0  0  0  0  0
    0.0000   -5.7750    0.0000 C   0  0  0  0  0  0  0  0  0  0  0  0
   -0.8250   -5.7750    0.0000 H   0  0  0  0  0  0  0  0  0  0  0  0
    0.0000   -6.6000    0.0000 H   0  0  0  0  0  0  0  0  0  0  0  0
    0.8250   -5.7750    0.0000 H   0  0  0  0  0  0  0  0  0  0  0  0
   -0.8250   -4.9500    0.0000 C   0  0  0  0  0  0  0  0  0  0  0  0
   -0.5093   -4.1878    0.0000 H   0  0  0  0  0  0  0  0  0  0  0  0
   -1.4084   -4.3666    0.0000 H   0  0  0  0  0  0  0  0  0  0  0  0
   -1.5872   -5.2657    0.0000 H   0  0  0  0  0  0  0  0  0  0  0  0
    0.8250   -4.9500    0.0000 C   0  0  0  0  0  0  0  0  0  0  0  0
    1.5872   -5.2657    0.0000 H   0  0  0  0  0  0  0  0  0  0  0  0
    1.4084   -4.3666    0.0000 H   0  0  0  0  0  0  0  0  0  0  0  0
    0.5093   -4.1878    0.0000 H   0  0  0  0  0  0  0  0  0  0  0  0
   -0.7145   -3.7125    0.0000 C   0  0  0  0  0  0  0  0  0  0  0  0
   -1.4719   -3.3856    0.0000 H   0  0  0  0  0  0  0  0  0  0  0  0
   -0.7145   -2.8875    0.0000 C   0  0  0  0  0  0  0  0  0  0  0  0
   -0.7324   -2.0627    0.0000 H   0  0  0  0  0  0  0  0  0  0  0  0
    0.7145   -1.2375    0.0000 C   0  0  0  0  0  0  0  0  0  0  0  0
    1.4289   -1.6500    0.0000 C   0  0  0  0  0  0  0  0  0  0  0  0
    1.4289   -2.4750    0.0000 O   0  0  0  0  0  0  0  0  0  0  0  0
    2.1434   -1.2375    0.0000 N   0  0  0  0  0  0  0  0  0  0  0  0
    2.8579   -1.6500    0.0000 C   0  0  0  0  0  0  0  0  0  0  0  0
    3.5724   -1.2375    0.0000 C   0  0  0  0  0  0  0  0  0  0  0  0
    4.2868   -1.6500    0.0000 C   0  0  0  0  0  0  0  0  0  0  0  0
    5.0013   -1.2375    0.0000 C   0  0  0  0  0  0  0  0  0  0  0  0
    5.0013   -0.4125    0.0000 H   0  0  0  0  0  0  0  0  0  0  0  0
    5.7158   -1.6500    0.0000 C   0  0  0  0  0  0  0  0  0  0  0  0
    6.4302   -1.2375    0.0000 H   0  0  0  0  0  0  0  0  0  0  0  0
    5.7158   -2.4750    0.0000 C   0  0  0  0  0  0  0  0  0  0  0  0
    6.4302   -2.8875    0.0000 H   0  0  0  0  0  0  0  0  0  0  0  0
    5.0013   -2.8875    0.0000 C   0  0  0  0  0  0  0  0  0  0  0  0
    5.0013   -3.7125    0.0000 F   0  0  0  0  0  0  0  0  0  0  0  0
    4.2868   -2.4750    0.0000 C   0  0  0  0  0  0  0  0  0  0  0  0
    3.5724   -2.8875    0.0000 H   0  0  0  0  0  0  0  0  0  0  0  0
    3.9426   -0.5003    0.0000 H   0  0  0  0  0  0  0  0  0  0  0  0
    3.2021   -0.5003    0.0000 H   0  0  0  0  0  0  0  0  0  0  0  0
    2.4876   -2.3872    0.0000 H   0  0  0  0  0  0  0  0  0  0  0  0
    3.2281   -2.3872    0.0000 H   0  0  0  0  0  0  0  0  0  0  0  0
    2.5559   -0.5230    0.0000 H   0  0  0  0  0  0  0  0  0  0  0  0
    0.7145   -0.4125    0.0000 C   0  0  0  0  0  0  0  0  0  0  0  0
    0.0000    0.0000    0.0000 C   0  0  0  0  0  0  0  0  0  0  0  0
    0.0000   -0.8250    0.0000 H   0  0  0  0  0  0  0  0  0  0  0  0
    0.0000    0.8250    0.0000 C   0  0  0  0  0  0  0  0  0  0  0  0
   -0.7145    1.2375    0.0000 H   0  0  0  0  0  0  0  0  0  0  0  0
    0.7145    1.2375    0.0000 C   0  0  0  0  0  0  0  0  0  0  0  0
    0.7145    2.0625    0.0000 H   0  0  0  0  0  0  0  0  0  0  0  0
    1.4289    0.8250    0.0000 N   0  0  0  0  0  0  0  0  0  0  0  0
    1.4289    0.0000    0.0000 C   0  0  0  0  0  0  0  0  0  0  0  0
    2.2539    0.0000    0.0000 H   0  0  0  0  0  0  0  0  0  0  0  0
    1.4289   -0.8250    0.0000 H   0  0  0  0  0  0  0  0  0  0  0  0
   -1.5472   -0.3359    0.0000 H   0  0  0  0  0  0  0  0  0  0  0  0
   -2.5257    0.2995    0.0000 H   0  0  0  0  0  0  0  0  0  0  0  0
   -3.1611   -0.6790    0.0000 H   0  0  0  0  0  0  0  0  0  0  0  0
  1  2  1  0  0  0  0
  2  3  1  0  0  0  0
  3  4  2  0  0  0  0
  4  5  1  0  0  0  0
  5  6  2  0  0  0  0
  5  7  1  0  0  0  0
  7  8  1  0  0  0  0
  8  9  1  0  0  0  0
  8 10  1  0  0  0  0
  8 11  1  0  0  0  0
 11 12  1  0  0  0  0
 11 13  1  0  0  0  0
 11 14  1  0  0  0  0
 14 15  1  0  0  0  0
 15 16  1  0  0  0  0
 15 17  1  0  0  0  0
 15 18  1  0  0  0  0
  7 18  1  0  0  0  0
 18 19  1  0  0  0  0
 18 20  1  0  0  0  0
  4 21  1  0  0  0  0
 21 22  1  0  0  0  0
 21 23  2  0  0  0  0
  2 23  1  0  0  0  0
 23 24  1  0  0  0  0
 24 25  2  0  0  0  0
 24 26  1  0  0  0  0
 26 27  1  0  0  0  0
 27 28  2  0  0  0  0
 28 29  1  0  0  0  0
 28 30  1  0  0  0  0
 30 31  1  0  0  0  0
 30 32  2  0  0  0  0
 32 33  1  0  0  0  0
 33 34  1  0  0  0  0
 34 35  1  0  0  0  0
 34 36  1  0  0  0  0
 34 37  1  0  0  0  0
 33 38  1  0  0  0  0
 38 39  1  0  0  0  0
 38 40  1  0  0  0  0
 38 41  1  0  0  0  0
 33 42  1  0  0  0  0
 42 43  1  0  0  0  0
 42 44  1  0  0  0  0
 42 45  1  0  0  0  0
 32 46  1  0  0  0  0
 46 47  1  0  0  0  0
 46 48  2  0  0  0  0
 27 48  1  0  0  0  0
 48 49  1  0  0  0  0
 26 50  1  0  0  0  0
 50 51  1  0  0  0  0
 51 52  2  0  0  0  0
 51 53  1  0  0  0  0
 53 54  1  0  0  0  0
 54 55  1  0  0  0  0
 55 56  1  0  0  0  0
 56 57  2  0  0  0  0
 57 58  1  0  0  0  0
 57 59  1  0  0  0  0
 59 60  1  0  0  0  0
 59 61  2  0  0  0  0
 61 62  1  0  0  0  0
 61 63  1  0  0  0  0
 63 64  1  0  0  0  0
 63 65  2  0  0  0  0
 56 65  1  0  0  0  0
 65 66  1  0  0  0  0
 55 67  1  0  0  0  0
 55 68  1  0  0  0  0
 54 69  1  0  0  0  0
 54 70  1  0  0  0  0
 53 71  1  0  0  0  0
 50 72  1  0  0  0  0
 72 73  2  0  0  0  0
 73 74  1  0  0  0  0
 73 75  1  0  0  0  0
 75 76  1  0  0  0  0
 75 77  2  0  0  0  0
 77 78  1  0  0  0  0
 77 79  1  0  0  0  0
 79 80  2  0  0  0  0
 72 80  1  0  0  0  0
 80 81  1  0  0  0  0
 50 82  1  0  0  0  0
  1 83  1  0  0  0  0
  1 84  1  0  0  0  0
  1 85  1  0  0  0  0
M  END
> <Potency>
92.0648573310229

> <pIC50>
4.035906115511888

> <Outcome>
Inactive

> <is_active>
0

$$$$

  Mrv1921 08232120312D          

 76 80  0  0  0  0            999 V2000
    0.0000   -5.7750    0.0000 C   0  0  0  0  0  0  0  0  0  0  0  0
    0.0000   -4.9500    0.0000 C   0  0  0  0  0  0  0  0  0  0  0  0
    0.8250   -4.9500    0.0000 C   0  0  0  0  0  0  0  0  0  0  0  0
    1.5872   -5.2657    0.0000 H   0  0  0  0  0  0  0  0  0  0  0  0
    1.4084   -4.3666    0.0000 H   0  0  0  0  0  0  0  0  0  0  0  0
    0.5093   -4.1878    0.0000 H   0  0  0  0  0  0  0  0  0  0  0  0
   -0.8250   -4.9500    0.0000 C   0  0  0  0  0  0  0  0  0  0  0  0
   -0.5093   -4.1878    0.0000 H   0  0  0  0  0  0  0  0  0  0  0  0
   -1.4084   -4.3666    0.0000 H   0  0  0  0  0  0  0  0  0  0  0  0
   -1.5872   -5.2657    0.0000 H   0  0  0  0  0  0  0  0  0  0  0  0
    0.0000   -4.1250    0.0000 C   0  0  0  0  0  0  0  0  0  0  0  0
   -0.7145   -3.7125    0.0000 C   0  0  0  0  0  0  0  0  0  0  0  0
   -1.4719   -3.3856    0.0000 H   0  0  0  0  0  0  0  0  0  0  0  0
   -0.7145   -2.8875    0.0000 C   0  0  0  0  0  0  0  0  0  0  0  0
   -0.7324   -2.0627    0.0000 H   0  0  0  0  0  0  0  0  0  0  0  0
    0.0000   -2.4750    0.0000 C   0  0  0  0  0  0  0  0  0  0  0  0
    0.0000   -1.6500    0.0000 N   0  0  0  0  0  0  0  0  0  0  0  0
   -0.7145   -1.2375    0.0000 C   0  0  0  0  0  0  0  0  0  0  0  0
   -0.7145   -0.4125    0.0000 O   0  0  0  0  0  0  0  0  0  0  0  0
   -1.4289   -1.6500    0.0000 C   0  0  0  0  0  0  0  0  0  0  0  0
   -1.5152   -2.4705    0.0000 C   0  0  0  0  0  0  0  0  0  0  0  0
   -2.1283   -1.9184    0.0000 H   0  0  0  0  0  0  0  0  0  0  0  0
   -2.3221   -2.6420    0.0000 N   0  0  0  0  0  0  0  0  0  0  0  0
   -2.6577   -3.3957    0.0000 C   0  0  0  0  0  0  0  0  0  0  0  0
   -2.2452   -4.1102    0.0000 C   0  0  0  0  0  0  0  0  0  0  0  0
   -1.7314   -3.4647    0.0000 H   0  0  0  0  0  0  0  0  0  0  0  0
   -2.0250   -4.9052    0.0000 H   0  0  0  0  0  0  0  0  0  0  0  0
   -2.7972   -4.7232    0.0000 O   0  0  0  0  0  0  0  0  0  0  0  0
   -3.5509   -4.3877    0.0000 C   0  0  0  0  0  0  0  0  0  0  0  0
   -4.3754   -4.4165    0.0000 H   0  0  0  0  0  0  0  0  0  0  0  0
   -3.9881   -5.0873    0.0000 H   0  0  0  0  0  0  0  0  0  0  0  0
   -3.4647   -3.5672    0.0000 C   0  0  0  0  0  0  0  0  0  0  0  0
   -4.0778   -3.0152    0.0000 O   0  0  0  0  0  0  0  0  0  0  0  0
   -3.1769   -2.7545    0.0000 H   0  0  0  0  0  0  0  0  0  0  0  0
   -2.7346   -1.9275    0.0000 N   0  0  0  0  0  0  0  0  0  0  0  0
   -2.1826   -1.3144    0.0000 N   0  0  0  0  0  0  0  0  0  0  0  0
    0.7145   -1.2375    0.0000 C   0  0  0  0  0  0  0  0  0  0  0  0
    1.4289   -1.6500    0.0000 C   0  0  0  0  0  0  0  0  0  0  0  0
    1.4289   -2.4750    0.0000 O   0  0  0  0  0  0  0  0  0  0  0  0
    2.1434   -1.2375    0.0000 N   0  0  0  0  0  0  0  0  0  0  0  0
    2.8579   -1.6500    0.0000 C   0  0  0  0  0  0  0  0  0  0  0  0
    3.5724   -1.2375    0.0000 C   0  0  0  0  0  0  0  0  0  0  0  0
    4.2868   -1.6500    0.0000 C   0  0  0  0  0  0  0  0  0  0  0  0
    5.0013   -1.2375    0.0000 C   0  0  0  0  0  0  0  0  0  0  0  0
    5.0013   -0.4125    0.0000 H   0  0  0  0  0  0  0  0  0  0  0  0
    5.7158   -1.6500    0.0000 C   0  0  0  0  0  0  0  0  0  0  0  0
    6.4302   -1.2375    0.0000 H   0  0  0  0  0  0  0  0  0  0  0  0
    5.7158   -2.4750    0.0000 C   0  0  0  0  0  0  0  0  0  0  0  0
    6.4302   -2.8875    0.0000 H   0  0  0  0  0  0  0  0  0  0  0  0
    5.0013   -2.8875    0.0000 C   0  0  0  0  0  0  0  0  0  0  0  0
    5.0013   -3.7125    0.0000 F   0  0  0  0  0  0  0  0  0  0  0  0
    4.2868   -2.4750    0.0000 C   0  0  0  0  0  0  0  0  0  0  0  0
    3.5724   -2.8875    0.0000 H   0  0  0  0  0  0  0  0  0  0  0  0
    3.9426   -0.5003    0.0000 H   0  0  0  0  0  0  0  0  0  0  0  0
    3.2021   -0.5003    0.0000 H   0  0  0  0  0  0  0  0  0  0  0  0
    2.4876   -2.3872    0.0000 H   0  0  0  0  0  0  0  0  0  0  0  0
    3.2281   -2.3872    0.0000 H   0  0  0  0  0  0  0  0  0  0  0  0
    2.1434   -0.4125    0.0000 H   0  0  0  0  0  0  0  0  0  0  0  0
    0.7145   -0.4125    0.0000 C   0  0  0  0  0  0  0  0  0  0  0  0
    0.0000    0.0000    0.0000 C   0  0  0  0  0  0  0  0  0  0  0  0
    0.0000   -0.8250    0.0000 H   0  0  0  0  0  0  0  0  0  0  0  0
    0.0000    0.8250    0.0000 C   0  0  0  0  0  0  0  0  0  0  0  0
   -0.7145    1.2375    0.0000 H   0  0  0  0  0  0  0  0  0  0  0  0
    0.7145    1.2375    0.0000 C   0  0  0  0  0  0  0  0  0  0  0  0
    0.7145    2.0625    0.0000 H   0  0  0  0  0  0  0  0  0  0  0  0
    1.4289    0.8250    0.0000 N   0  0  0  0  0  0  0  0  0  0  0  0
    1.4289    0.0000    0.0000 C   0  0  0  0  0  0  0  0  0  0  0  0
    1.4289   -0.8250    0.0000 H   0  0  0  0  0  0  0  0  0  0  0  0
    0.7145   -2.0625    0.0000 H   0  0  0  0  0  0  0  0  0  0  0  0
    0.7145   -2.8875    0.0000 C   0  0  0  0  0  0  0  0  0  0  0  0
    1.4289   -3.3000    0.0000 H   0  0  0  0  0  0  0  0  0  0  0  0
    0.7145   -3.7125    0.0000 C   0  0  0  0  0  0  0  0  0  0  0  0
    0.0000   -3.3000    0.0000 H   0  0  0  0  0  0  0  0  0  0  0  0
   -0.8250   -5.7750    0.0000 H   0  0  0  0  0  0  0  0  0  0  0  0
    0.0000   -6.6000    0.0000 H   0  0  0  0  0  0  0  0  0  0  0  0
    0.8250   -5.7750    0.0000 H   0  0  0  0  0  0  0  0  0  0  0  0
  1  2  1  0  0  0  0
  2  3  1  0  0  0  0
  3  4  1  0  0  0  0
  3  5  1  0  0  0  0
  3  6  1  0  0  0  0
  2  7  1  0  0  0  0
  7  8  1  0  0  0  0
  7  9  1  0  0  0  0
  7 10  1  0  0  0  0
  2 11  1  0  0  0  0
 11 12  2  0  0  0  0
 12 13  1  0  0  0  0
 12 14  1  0  0  0  0
 14 15  1  0  0  0  0
 14 16  2  0  0  0  0
 16 17  1  0  0  0  0
 17 18  1  0  0  0  0
 18 19  2  0  0  0  0
 18 20  1  0  0  0  0
 20 21  2  0  0  0  0
 21 22  1  0  0  0  0
 21 23  1  0  0  0  0
 23 24  1  0  0  0  0
 24 25  1  0  0  0  0
 25 26  1  0  0  0  0
 25 27  1  0  0  0  0
 25 28  1  0  0  0  0
 28 29  1  0  0  0  0
 29 30  1  0  0  0  0
 29 31  1  0  0  0  0
 29 32  1  0  0  0  0
 24 32  1  0  0  0  0
 32 33  2  0  0  0  0
 24 34  1  0  0  0  0
 23 35  1  0  0  0  0
 35 36  2  0  0  0  0
 20 36  1  0  0  0  0
 17 37  1  0  0  0  0
 37 38  1  0  0  0  0
 38 39  2  0  0  0  0
 38 40  1  0  0  0  0
 40 41  1  0  0  0  0
 41 42  1  0  0  0  0
 42 43  1  0  0  0  0
 43 44  2  0  0  0  0
 44 45  1  0  0  0  0
 44 46  1  0  0  0  0
 46 47  1  0  0  0  0
 46 48  2  0  0  0  0
 48 49  1  0  0  0  0
 48 50  1  0  0  0  0
 50 51  1  0  0  0  0
 50 52  2  0  0  0  0
 43 52  1  0  0  0  0
 52 53  1  0  0  0  0
 42 54  1  0  0  0  0
 42 55  1  0  0  0  0
 41 56  1  0  0  0  0
 41 57  1  0  0  0  0
 40 58  1  0  0  0  0
 37 59  1  0  0  0  0
 59 60  2  0  0  0  0
 60 61  1  0  0  0  0
 60 62  1  0  0  0  0
 62 63  1  0  0  0  0
 62 64  2  0  0  0  0
 64 65  1  0  0  0  0
 64 66  1  0  0  0  0
 66 67  2  0  0  0  0
 59 67  1  0  0  0  0
 67 68  1  0  0  0  0
 37 69  1  0  0  0  0
 16 70  1  0  0  0  0
 70 71  1  0  0  0  0
 70 72  2  0  0  0  0
 11 72  1  0  0  0  0
 72 73  1  0  0  0  0
  1 74  1  0  0  0  0
  1 75  1  0  0  0  0
  1 76  1  0  0  0  0
M  END
> <Potency>
19.5123421676394

> <pIC50>
4.709690596857162

> <Outcome>
Inactive

> <is_active>
0

$$$$

  Mrv1921 08232120312D          

 71 74  0  0  0  0            999 V2000
   -2.4304    1.4228    0.0000 C   0  0  0  0  0  0  0  0  0  0  0  0
   -1.8903    0.7991    0.0000 C   0  0  0  0  0  0  0  0  0  0  0  0
   -2.5140    0.2590    0.0000 C   0  0  0  0  0  0  0  0  0  0  0  0
   -3.2968   -0.0013    0.0000 H   0  0  0  0  0  0  0  0  0  0  0  0
   -2.5730   -0.5639    0.0000 H   0  0  0  0  0  0  0  0  0  0  0  0
   -1.7763   -0.1105    0.0000 H   0  0  0  0  0  0  0  0  0  0  0  0
   -1.2667    1.3392    0.0000 C   0  0  0  0  0  0  0  0  0  0  0  0
   -1.0064    0.5564    0.0000 H   0  0  0  0  0  0  0  0  0  0  0  0
   -0.4438    1.2801    0.0000 H   0  0  0  0  0  0  0  0  0  0  0  0
   -0.8972    2.0768    0.0000 H   0  0  0  0  0  0  0  0  0  0  0  0
   -1.3502    0.1755    0.0000 C   0  0  0  0  0  0  0  0  0  0  0  0
   -0.5401    0.3314    0.0000 C   0  0  0  0  0  0  0  0  0  0  0  0
    0.2465    0.5801    0.0000 H   0  0  0  0  0  0  0  0  0  0  0  0
    0.0000   -0.2923    0.0000 C   0  0  0  0  0  0  0  0  0  0  0  0
    0.5401   -0.9159    0.0000 H   0  0  0  0  0  0  0  0  0  0  0  0
   -0.2700   -1.0718    0.0000 C   0  0  0  0  0  0  0  0  0  0  0  0
    0.2700   -1.6954    0.0000 N   0  0  0  0  0  0  0  0  0  0  0  0
    0.0000   -2.4750    0.0000 C   0  0  0  0  0  0  0  0  0  0  0  0
    0.5401   -3.0986    0.0000 O   0  0  0  0  0  0  0  0  0  0  0  0
   -0.8101   -2.6309    0.0000 C   0  0  0  0  0  0  0  0  0  0  0  0
   -1.1602   -3.3780    0.0000 C   0  0  0  0  0  0  0  0  0  0  0  0
   -0.7616   -4.1003    0.0000 H   0  0  0  0  0  0  0  0  0  0  0  0
   -1.9788   -3.2759    0.0000 C   0  0  0  0  0  0  0  0  0  0  0  0
   -2.5426   -3.8782    0.0000 C   0  0  0  0  0  0  0  0  0  0  0  0
   -3.3461   -3.6911    0.0000 O   0  0  0  0  0  0  0  0  0  0  0  0
   -3.5859   -2.9017    0.0000 H   0  0  0  0  0  0  0  0  0  0  0  0
   -2.6827   -4.6912    0.0000 H   0  0  0  0  0  0  0  0  0  0  0  0
   -1.9741   -4.4761    0.0000 H   0  0  0  0  0  0  0  0  0  0  0  0
   -2.1348   -2.4658    0.0000 N   0  0  0  0  0  0  0  0  0  0  0  0
   -2.8818   -2.1157    0.0000 H   0  0  0  0  0  0  0  0  0  0  0  0
   -1.4125   -2.0671    0.0000 N   0  0  0  0  0  0  0  0  0  0  0  0
    1.0802   -1.5395    0.0000 C   0  0  0  0  0  0  0  0  0  0  0  0
    1.6203   -2.1632    0.0000 C   0  0  0  0  0  0  0  0  0  0  0  0
    1.3502   -2.9427    0.0000 O   0  0  0  0  0  0  0  0  0  0  0  0
    2.4304   -2.0073    0.0000 N   0  0  0  0  0  0  0  0  0  0  0  0
    2.9705   -2.6309    0.0000 C   0  0  0  0  0  0  0  0  0  0  0  0
    3.7806   -2.4750    0.0000 C   0  0  0  0  0  0  0  0  0  0  0  0
    4.3207   -3.0986    0.0000 C   0  0  0  0  0  0  0  0  0  0  0  0
    5.1308   -2.9427    0.0000 C   0  0  0  0  0  0  0  0  0  0  0  0
    5.4009   -2.1632    0.0000 H   0  0  0  0  0  0  0  0  0  0  0  0
    5.6709   -3.5664    0.0000 C   0  0  0  0  0  0  0  0  0  0  0  0
    6.4811   -3.4105    0.0000 H   0  0  0  0  0  0  0  0  0  0  0  0
    5.4009   -4.3459    0.0000 C   0  0  0  0  0  0  0  0  0  0  0  0
    5.9410   -4.9696    0.0000 H   0  0  0  0  0  0  0  0  0  0  0  0
    4.5908   -4.5018    0.0000 C   0  0  0  0  0  0  0  0  0  0  0  0
    4.3207   -5.2814    0.0000 F   0  0  0  0  0  0  0  0  0  0  0  0
    4.0507   -3.8782    0.0000 C   0  0  0  0  0  0  0  0  0  0  0  0
    3.2405   -4.0341    0.0000 H   0  0  0  0  0  0  0  0  0  0  0  0
    4.3718   -1.8996    0.0000 H   0  0  0  0  0  0  0  0  0  0  0  0
    3.6721   -1.6572    0.0000 H   0  0  0  0  0  0  0  0  0  0  0  0
    2.3793   -3.2063    0.0000 H   0  0  0  0  0  0  0  0  0  0  0  0
    3.0790   -3.4487    0.0000 H   0  0  0  0  0  0  0  0  0  0  0  0
    2.7004   -1.2277    0.0000 H   0  0  0  0  0  0  0  0  0  0  0  0
    1.3502   -0.7600    0.0000 C   0  0  0  0  0  0  0  0  0  0  0  0
    0.8101   -0.1363    0.0000 C   0  0  0  0  0  0  0  0  0  0  0  0
    1.6203    0.0196    0.0000 H   0  0  0  0  0  0  0  0  0  0  0  0
    1.0802    0.6432    0.0000 C   0  0  0  0  0  0  0  0  0  0  0  0
    0.9709    1.4609    0.0000 H   0  0  0  0  0  0  0  0  0  0  0  0
    1.8903    0.7991    0.0000 C   0  0  0  0  0  0  0  0  0  0  0  0
    2.1604    1.5787    0.0000 H   0  0  0  0  0  0  0  0  0  0  0  0
    2.4304    0.1755    0.0000 N   0  0  0  0  0  0  0  0  0  0  0  0
    2.1604   -0.6041    0.0000 C   0  0  0  0  0  0  0  0  0  0  0  0
    1.8903   -1.3836    0.0000 H   0  0  0  0  0  0  0  0  0  0  0  0
    0.8101   -2.3191    0.0000 H   0  0  0  0  0  0  0  0  0  0  0  0
   -1.0802   -1.2277    0.0000 C   0  0  0  0  0  0  0  0  0  0  0  0
   -1.8935   -1.3660    0.0000 H   0  0  0  0  0  0  0  0  0  0  0  0
   -1.6203   -0.6041    0.0000 C   0  0  0  0  0  0  0  0  0  0  0  0
   -0.8101   -0.4482    0.0000 H   0  0  0  0  0  0  0  0  0  0  0  0
   -1.8068    1.9628    0.0000 H   0  0  0  0  0  0  0  0  0  0  0  0
   -2.9705    2.0464    0.0000 H   0  0  0  0  0  0  0  0  0  0  0  0
   -3.0540    0.8827    0.0000 H   0  0  0  0  0  0  0  0  0  0  0  0
  1  2  1  0  0  0  0
  2  3  1  0  0  0  0
  3  4  1  0  0  0  0
  3  5  1  0  0  0  0
  3  6  1  0  0  0  0
  2  7  1  0  0  0  0
  7  8  1  0  0  0  0
  7  9  1  0  0  0  0
  7 10  1  0  0  0  0
  2 11  1  0  0  0  0
 11 12  2  0  0  0  0
 12 13  1  0  0  0  0
 12 14  1  0  0  0  0
 14 15  1  0  0  0  0
 14 16  2  0  0  0  0
 16 17  1  0  0  0  0
 17 18  1  0  0  0  0
 18 19  2  0  0  0  0
 18 20  1  0  0  0  0
 20 21  1  0  0  0  0
 21 22  1  0  0  0  0
 21 23  2  0  0  0  0
 23 24  1  0  0  0  0
 24 25  1  0  0  0  0
 25 26  1  0  0  0  0
 24 27  1  0  0  0  0
 24 28  1  0  0  0  0
 23 29  1  0  0  0  0
 29 30  1  0  0  0  0
 29 31  1  0  0  0  0
 20 31  2  0  0  0  0
 17 32  1  0  0  0  0
 32 33  1  0  0  0  0
 33 34  2  0  0  0  0
 33 35  1  0  0  0  0
 35 36  1  0  0  0  0
 36 37  1  0  0  0  0
 37 38  1  0  0  0  0
 38 39  2  0  0  0  0
 39 40  1  0  0  0  0
 39 41  1  0  0  0  0
 41 42  1  0  0  0  0
 41 43  2  0  0  0  0
 43 44  1  0  0  0  0
 43 45  1  0  0  0  0
 45 46  1  0  0  0  0
 45 47  2  0  0  0  0
 38 47  1  0  0  0  0
 47 48  1  0  0  0  0
 37 49  1  0  0  0  0
 37 50  1  0  0  0  0
 36 51  1  0  0  0  0
 36 52  1  0  0  0  0
 35 53  1  0  0  0  0
 32 54  1  0  0  0  0
 54 55  2  0  0  0  0
 55 56  1  0  0  0  0
 55 57  1  0  0  0  0
 57 58  1  0  0  0  0
 57 59  2  0  0  0  0
 59 60  1  0  0  0  0
 59 61  1  0  0  0  0
 61 62  2  0  0  0  0
 54 62  1  0  0  0  0
 62 63  1  0  0  0  0
 32 64  1  0  0  0  0
 16 65  1  0  0  0  0
 65 66  1  0  0  0  0
 65 67  2  0  0  0  0
 11 67  1  0  0  0  0
 67 68  1  0  0  0  0
  1 69  1  0  0  0  0
  1 70  1  0  0  0  0
  1 71  1  0  0  0  0
M  END
> <Potency>
18.7712162773202

> <pIC50>
4.726507586440176

> <Outcome>
Inactive

> <is_active>
0

$$$$

  Mrv1921 08232120312D          

 66 69  0  0  0  0            999 V2000
   -2.4304    1.4228    0.0000 C   0  0  0  0  0  0  0  0  0  0  0  0
   -1.8903    0.7991    0.0000 C   0  0  0  0  0  0  0  0  0  0  0  0
   -2.5140    0.2590    0.0000 C   0  0  0  0  0  0  0  0  0  0  0  0
   -3.2968   -0.0013    0.0000 H   0  0  0  0  0  0  0  0  0  0  0  0
   -2.5730   -0.5639    0.0000 H   0  0  0  0  0  0  0  0  0  0  0  0
   -1.7763   -0.1105    0.0000 H   0  0  0  0  0  0  0  0  0  0  0  0
   -1.2667    1.3392    0.0000 C   0  0  0  0  0  0  0  0  0  0  0  0
   -1.0064    0.5564    0.0000 H   0  0  0  0  0  0  0  0  0  0  0  0
   -0.4438    1.2801    0.0000 H   0  0  0  0  0  0  0  0  0  0  0  0
   -0.8972    2.0768    0.0000 H   0  0  0  0  0  0  0  0  0  0  0  0
   -1.3502    0.1755    0.0000 C   0  0  0  0  0  0  0  0  0  0  0  0
   -0.5401    0.3314    0.0000 C   0  0  0  0  0  0  0  0  0  0  0  0
    0.2465    0.5801    0.0000 H   0  0  0  0  0  0  0  0  0  0  0  0
    0.0000   -0.2923    0.0000 C   0  0  0  0  0  0  0  0  0  0  0  0
    0.5401   -0.9159    0.0000 H   0  0  0  0  0  0  0  0  0  0  0  0
   -0.2700   -1.0718    0.0000 C   0  0  0  0  0  0  0  0  0  0  0  0
    0.2700   -1.6954    0.0000 N   0  0  0  0  0  0  0  0  0  0  0  0
    0.0000   -2.4750    0.0000 C   0  0  0  0  0  0  0  0  0  0  0  0
    0.5401   -3.0986    0.0000 O   0  0  0  0  0  0  0  0  0  0  0  0
   -0.8101   -2.6309    0.0000 C   0  0  0  0  0  0  0  0  0  0  0  0
   -1.1602   -3.3780    0.0000 C   0  0  0  0  0  0  0  0  0  0  0  0
   -0.7616   -4.1003    0.0000 H   0  0  0  0  0  0  0  0  0  0  0  0
   -1.9788   -3.2759    0.0000 N   0  0  0  0  0  0  0  0  0  0  0  0
   -2.1348   -2.4658    0.0000 C   0  0  0  0  0  0  0  0  0  0  0  0
   -2.8818   -2.1157    0.0000 H   0  0  0  0  0  0  0  0  0  0  0  0
   -1.4125   -2.0671    0.0000 S   0  0  0  0  0  0  0  0  0  0  0  0
    1.0802   -1.5395    0.0000 C   0  0  0  0  0  0  0  0  0  0  0  0
    1.6203   -2.1632    0.0000 C   0  0  0  0  0  0  0  0  0  0  0  0
    1.3502   -2.9427    0.0000 O   0  0  0  0  0  0  0  0  0  0  0  0
    2.4304   -2.0073    0.0000 N   0  0  0  0  0  0  0  0  0  0  0  0
    2.9705   -2.6309    0.0000 C   0  0  0  0  0  0  0  0  0  0  0  0
    3.7806   -2.4750    0.0000 C   0  0  0  0  0  0  0  0  0  0  0  0
    4.3207   -3.0986    0.0000 C   0  0  0  0  0  0  0  0  0  0  0  0
    5.1308   -2.9427    0.0000 C   0  0  0  0  0  0  0  0  0  0  0  0
    5.4009   -2.1632    0.0000 H   0  0  0  0  0  0  0  0  0  0  0  0
    5.6709   -3.5664    0.0000 C   0  0  0  0  0  0  0  0  0  0  0  0
    6.4811   -3.4105    0.0000 H   0  0  0  0  0  0  0  0  0  0  0  0
    5.4009   -4.3459    0.0000 C   0  0  0  0  0  0  0  0  0  0  0  0
    5.9410   -4.9696    0.0000 H   0  0  0  0  0  0  0  0  0  0  0  0
    4.5908   -4.5018    0.0000 C   0  0  0  0  0  0  0  0  0  0  0  0
    4.3207   -5.2814    0.0000 F   0  0  0  0  0  0  0  0  0  0  0  0
    4.0507   -3.8782    0.0000 C   0  0  0  0  0  0  0  0  0  0  0  0
    3.2405   -4.0341    0.0000 H   0  0  0  0  0  0  0  0  0  0  0  0
    4.3718   -1.8996    0.0000 H   0  0  0  0  0  0  0  0  0  0  0  0
    3.6721   -1.6572    0.0000 H   0  0  0  0  0  0  0  0  0  0  0  0
    2.3793   -3.2063    0.0000 H   0  0  0  0  0  0  0  0  0  0  0  0
    3.0790   -3.4487    0.0000 H   0  0  0  0  0  0  0  0  0  0  0  0
    2.7004   -1.2277    0.0000 H   0  0  0  0  0  0  0  0  0  0  0  0
    1.3502   -0.7600    0.0000 C   0  0  0  0  0  0  0  0  0  0  0  0
    0.8101   -0.1363    0.0000 C   0  0  0  0  0  0  0  0  0  0  0  0
    1.6203    0.0196    0.0000 H   0  0  0  0  0  0  0  0  0  0  0  0
    1.0802    0.6432    0.0000 C   0  0  0  0  0  0  0  0  0  0  0  0
    0.9709    1.4609    0.0000 H   0  0  0  0  0  0  0  0  0  0  0  0
    1.8903    0.7991    0.0000 C   0  0  0  0  0  0  0  0  0  0  0  0
    2.1604    1.5787    0.0000 H   0  0  0  0  0  0  0  0  0  0  0  0
    2.4304    0.1755    0.0000 N   0  0  0  0  0  0  0  0  0  0  0  0
    2.1604   -0.6041    0.0000 C   0  0  0  0  0  0  0  0  0  0  0  0
    1.8903   -1.3836    0.0000 H   0  0  0  0  0  0  0  0  0  0  0  0
    0.8101   -2.3191    0.0000 H   0  0  0  0  0  0  0  0  0  0  0  0
   -1.0802   -1.2277    0.0000 C   0  0  0  0  0  0  0  0  0  0  0  0
   -1.8935   -1.3660    0.0000 H   0  0  0  0  0  0  0  0  0  0  0  0
   -1.6203   -0.6041    0.0000 C   0  0  0  0  0  0  0  0  0  0  0  0
   -0.8101   -0.4482    0.0000 H   0  0  0  0  0  0  0  0  0  0  0  0
   -1.8068    1.9628    0.0000 H   0  0  0  0  0  0  0  0  0  0  0  0
   -2.9705    2.0464    0.0000 H   0  0  0  0  0  0  0  0  0  0  0  0
   -3.0540    0.8827    0.0000 H   0  0  0  0  0  0  0  0  0  0  0  0
  1  2  1  0  0  0  0
  2  3  1  0  0  0  0
  3  4  1  0  0  0  0
  3  5  1  0  0  0  0
  3  6  1  0  0  0  0
  2  7  1  0  0  0  0
  7  8  1  0  0  0  0
  7  9  1  0  0  0  0
  7 10  1  0  0  0  0
  2 11  1  0  0  0  0
 11 12  2  0  0  0  0
 12 13  1  0  0  0  0
 12 14  1  0  0  0  0
 14 15  1  0  0  0  0
 14 16  2  0  0  0  0
 16 17  1  0  0  0  0
 17 18  1  0  0  0  0
 18 19  2  0  0  0  0
 18 20  1  0  0  0  0
 20 21  2  0  0  0  0
 21 22  1  0  0  0  0
 21 23  1  0  0  0  0
 23 24  2  0  0  0  0
 24 25  1  0  0  0  0
 24 26  1  0  0  0  0
 20 26  1  0  0  0  0
 17 27  1  0  0  0  0
 27 28  1  0  0  0  0
 28 29  2  0  0  0  0
 28 30  1  0  0  0  0
 30 31  1  0  0  0  0
 31 32  1  0  0  0  0
 32 33  1  0  0  0  0
 33 34  2  0  0  0  0
 34 35  1  0  0  0  0
 34 36  1  0  0  0  0
 36 37  1  0  0  0  0
 36 38  2  0  0  0  0
 38 39  1  0  0  0  0
 38 40  1  0  0  0  0
 40 41  1  0  0  0  0
 40 42  2  0  0  0  0
 33 42  1  0  0  0  0
 42 43  1  0  0  0  0
 32 44  1  0  0  0  0
 32 45  1  0  0  0  0
 31 46  1  0  0  0  0
 31 47  1  0  0  0  0
 30 48  1  0  0  0  0
 27 49  1  0  0  0  0
 49 50  2  0  0  0  0
 50 51  1  0  0  0  0
 50 52  1  0  0  0  0
 52 53  1  0  0  0  0
 52 54  2  0  0  0  0
 54 55  1  0  0  0  0
 54 56  1  0  0  0  0
 56 57  2  0  0  0  0
 49 57  1  0  0  0  0
 57 58  1  0  0  0  0
 27 59  1  0  0  0  0
 16 60  1  0  0  0  0
 60 61  1  0  0  0  0
 60 62  2  0  0  0  0
 11 62  1  0  0  0  0
 62 63  1  0  0  0  0
  1 64  1  0  0  0  0
  1 65  1  0  0  0  0
  1 66  1  0  0  0  0
M  END
> <Potency>
24.1983985657837

> <pIC50>
4.616213374393801

> <Outcome>
Inactive

> <is_active>
0

$$$$

  Mrv1921 08232120312D          

 69 72  0  0  0  0            999 V2000
   -2.8818   -2.1157    0.0000 C   0  0  0  0  0  0  0  0  0  0  0  0
   -2.1348   -2.4658    0.0000 N   0  0  0  0  0  0  0  0  0  0  0  0
   -1.9788   -3.2759    0.0000 N   0  0  0  0  0  0  0  0  0  0  0  0
   -1.1602   -3.3780    0.0000 C   0  0  0  0  0  0  0  0  0  0  0  0
   -0.7616   -4.1003    0.0000 H   0  0  0  0  0  0  0  0  0  0  0  0
   -0.8101   -2.6309    0.0000 C   0  0  0  0  0  0  0  0  0  0  0  0
    0.0000   -2.4750    0.0000 C   0  0  0  0  0  0  0  0  0  0  0  0
    0.5401   -3.0986    0.0000 O   0  0  0  0  0  0  0  0  0  0  0  0
    0.2700   -1.6954    0.0000 N   0  0  0  0  0  0  0  0  0  0  0  0
   -0.2700   -1.0718    0.0000 C   0  0  0  0  0  0  0  0  0  0  0  0
   -1.0802   -1.2277    0.0000 C   0  0  0  0  0  0  0  0  0  0  0  0
   -0.5538   -1.8629    0.0000 H   0  0  0  0  0  0  0  0  0  0  0  0
   -1.6203   -0.6041    0.0000 C   0  0  0  0  0  0  0  0  0  0  0  0
   -2.4304   -0.7600    0.0000 H   0  0  0  0  0  0  0  0  0  0  0  0
   -1.3502    0.1755    0.0000 C   0  0  0  0  0  0  0  0  0  0  0  0
   -1.8903    0.7991    0.0000 C   0  0  0  0  0  0  0  0  0  0  0  0
   -2.4304    1.4228    0.0000 C   0  0  0  0  0  0  0  0  0  0  0  0
   -1.8068    1.9628    0.0000 H   0  0  0  0  0  0  0  0  0  0  0  0
   -2.9705    2.0464    0.0000 H   0  0  0  0  0  0  0  0  0  0  0  0
   -3.0540    0.8827    0.0000 H   0  0  0  0  0  0  0  0  0  0  0  0
   -2.5140    0.2590    0.0000 C   0  0  0  0  0  0  0  0  0  0  0  0
   -3.2968   -0.0013    0.0000 H   0  0  0  0  0  0  0  0  0  0  0  0
   -2.5730   -0.5639    0.0000 H   0  0  0  0  0  0  0  0  0  0  0  0
   -1.7763   -0.1105    0.0000 H   0  0  0  0  0  0  0  0  0  0  0  0
   -1.2667    1.3392    0.0000 C   0  0  0  0  0  0  0  0  0  0  0  0
   -1.0064    0.5564    0.0000 H   0  0  0  0  0  0  0  0  0  0  0  0
   -0.4438    1.2801    0.0000 H   0  0  0  0  0  0  0  0  0  0  0  0
   -0.8972    2.0768    0.0000 H   0  0  0  0  0  0  0  0  0  0  0  0
   -0.5401    0.3314    0.0000 C   0  0  0  0  0  0  0  0  0  0  0  0
    0.2465    0.5801    0.0000 H   0  0  0  0  0  0  0  0  0  0  0  0
    0.0000   -0.2923    0.0000 C   0  0  0  0  0  0  0  0  0  0  0  0
    0.5401   -0.9159    0.0000 H   0  0  0  0  0  0  0  0  0  0  0  0
    1.0802   -1.5395    0.0000 C   0  0  0  0  0  0  0  0  0  0  0  0
    1.6203   -2.1632    0.0000 C   0  0  0  0  0  0  0  0  0  0  0  0
    1.3502   -2.9427    0.0000 O   0  0  0  0  0  0  0  0  0  0  0  0
    2.4304   -2.0073    0.0000 N   0  0  0  0  0  0  0  0  0  0  0  0
    2.9705   -2.6309    0.0000 C   0  0  0  0  0  0  0  0  0  0  0  0
    3.7806   -2.4750    0.0000 C   0  0  0  0  0  0  0  0  0  0  0  0
    4.3207   -3.0986    0.0000 C   0  0  0  0  0  0  0  0  0  0  0  0
    5.1308   -2.9427    0.0000 C   0  0  0  0  0  0  0  0  0  0  0  0
    5.4009   -2.1632    0.0000 H   0  0  0  0  0  0  0  0  0  0  0  0
    5.6709   -3.5664    0.0000 C   0  0  0  0  0  0  0  0  0  0  0  0
    6.4811   -3.4105    0.0000 H   0  0  0  0  0  0  0  0  0  0  0  0
    5.4009   -4.3459    0.0000 C   0  0  0  0  0  0  0  0  0  0  0  0
    5.9410   -4.9696    0.0000 H   0  0  0  0  0  0  0  0  0  0  0  0
    4.5908   -4.5018    0.0000 C   0  0  0  0  0  0  0  0  0  0  0  0
    4.3207   -5.2814    0.0000 F   0  0  0  0  0  0  0  0  0  0  0  0
    4.0507   -3.8782    0.0000 C   0  0  0  0  0  0  0  0  0  0  0  0
    3.2405   -4.0341    0.0000 H   0  0  0  0  0  0  0  0  0  0  0  0
    4.3718   -1.8996    0.0000 H   0  0  0  0  0  0  0  0  0  0  0  0
    3.6721   -1.6572    0.0000 H   0  0  0  0  0  0  0  0  0  0  0  0
    2.3793   -3.2063    0.0000 H   0  0  0  0  0  0  0  0  0  0  0  0
    3.0790   -3.4487    0.0000 H   0  0  0  0  0  0  0  0  0  0  0  0
    2.7004   -1.2277    0.0000 H   0  0  0  0  0  0  0  0  0  0  0  0
    1.3502   -0.7600    0.0000 C   0  0  0  0  0  0  0  0  0  0  0  0
    0.8101   -0.1363    0.0000 C   0  0  0  0  0  0  0  0  0  0  0  0
    1.6203    0.0196    0.0000 H   0  0  0  0  0  0  0  0  0  0  0  0
    1.0802    0.6432    0.0000 C   0  0  0  0  0  0  0  0  0  0  0  0
    0.9709    1.4609    0.0000 H   0  0  0  0  0  0  0  0  0  0  0  0
    1.8903    0.7991    0.0000 C   0  0  0  0  0  0  0  0  0  0  0  0
    2.1604    1.5787    0.0000 H   0  0  0  0  0  0  0  0  0  0  0  0
    2.4304    0.1755    0.0000 N   0  0  0  0  0  0  0  0  0  0  0  0
    2.1604   -0.6041    0.0000 C   0  0  0  0  0  0  0  0  0  0  0  0
    1.8903   -1.3836    0.0000 H   0  0  0  0  0  0  0  0  0  0  0  0
    0.8101   -2.3191    0.0000 H   0  0  0  0  0  0  0  0  0  0  0  0
   -1.4125   -2.0671    0.0000 N   0  0  0  0  0  0  0  0  0  0  0  0
   -2.5318   -1.3687    0.0000 H   0  0  0  0  0  0  0  0  0  0  0  0
   -3.6289   -1.7657    0.0000 H   0  0  0  0  0  0  0  0  0  0  0  0
   -3.2319   -2.8628    0.0000 H   0  0  0  0  0  0  0  0  0  0  0  0
  1  2  1  0  0  0  0
  2  3  1  0  0  0  0
  3  4  2  0  0  0  0
  4  5  1  0  0  0  0
  4  6  1  0  0  0  0
  6  7  1  0  0  0  0
  7  8  2  0  0  0  0
  7  9  1  0  0  0  0
  9 10  1  0  0  0  0
 10 11  2  0  0  0  0
 11 12  1  0  0  0  0
 11 13  1  0  0  0  0
 13 14  1  0  0  0  0
 13 15  2  0  0  0  0
 15 16  1  0  0  0  0
 16 17  1  0  0  0  0
 17 18  1  0  0  0  0
 17 19  1  0  0  0  0
 17 20  1  0  0  0  0
 16 21  1  0  0  0  0
 21 22  1  0  0  0  0
 21 23  1  0  0  0  0
 21 24  1  0  0  0  0
 16 25  1  0  0  0  0
 25 26  1  0  0  0  0
 25 27  1  0  0  0  0
 25 28  1  0  0  0  0
 15 29  1  0  0  0  0
 29 30  1  0  0  0  0
 29 31  2  0  0  0  0
 10 31  1  0  0  0  0
 31 32  1  0  0  0  0
  9 33  1  0  0  0  0
 33 34  1  0  0  0  0
 34 35  2  0  0  0  0
 34 36  1  0  0  0  0
 36 37  1  0  0  0  0
 37 38  1  0  0  0  0
 38 39  1  0  0  0  0
 39 40  2  0  0  0  0
 40 41  1  0  0  0  0
 40 42  1  0  0  0  0
 42 43  1  0  0  0  0
 42 44  2  0  0  0  0
 44 45  1  0  0  0  0
 44 46  1  0  0  0  0
 46 47  1  0  0  0  0
 46 48  2  0  0  0  0
 39 48  1  0  0  0  0
 48 49  1  0  0  0  0
 38 50  1  0  0  0  0
 38 51  1  0  0  0  0
 37 52  1  0  0  0  0
 37 53  1  0  0  0  0
 36 54  1  0  0  0  0
 33 55  1  0  0  0  0
 55 56  2  0  0  0  0
 56 57  1  0  0  0  0
 56 58  1  0  0  0  0
 58 59  1  0  0  0  0
 58 60  2  0  0  0  0
 60 61  1  0  0  0  0
 60 62  1  0  0  0  0
 62 63  2  0  0  0  0
 55 63  1  0  0  0  0
 63 64  1  0  0  0  0
 33 65  1  0  0  0  0
  6 66  2  0  0  0  0
  2 66  1  0  0  0  0
  1 67  1  0  0  0  0
  1 68  1  0  0  0  0
  1 69  1  0  0  0  0
M  END
> <Potency>
17.6000934008283

> <pIC50>
4.7544850274496735

> <Outcome>
Inactive

> <is_active>
0

$$$$

  Mrv1921 08232120312D          

 68 71  0  0  0  0            999 V2000
   -2.4304    1.4228    0.0000 C   0  0  0  0  0  0  0  0  0  0  0  0
   -1.8903    0.7991    0.0000 C   0  0  0  0  0  0  0  0  0  0  0  0
   -2.5140    0.2590    0.0000 C   0  0  0  0  0  0  0  0  0  0  0  0
   -3.2968   -0.0013    0.0000 H   0  0  0  0  0  0  0  0  0  0  0  0
   -2.5730   -0.5639    0.0000 H   0  0  0  0  0  0  0  0  0  0  0  0
   -1.7763   -0.1105    0.0000 H   0  0  0  0  0  0  0  0  0  0  0  0
   -1.2667    1.3392    0.0000 C   0  0  0  0  0  0  0  0  0  0  0  0
   -1.0064    0.5564    0.0000 H   0  0  0  0  0  0  0  0  0  0  0  0
   -0.4438    1.2801    0.0000 H   0  0  0  0  0  0  0  0  0  0  0  0
   -0.8972    2.0768    0.0000 H   0  0  0  0  0  0  0  0  0  0  0  0
   -1.3502    0.1755    0.0000 C   0  0  0  0  0  0  0  0  0  0  0  0
   -0.5401    0.3314    0.0000 C   0  0  0  0  0  0  0  0  0  0  0  0
    0.2465    0.5801    0.0000 H   0  0  0  0  0  0  0  0  0  0  0  0
    0.0000   -0.2923    0.0000 C   0  0  0  0  0  0  0  0  0  0  0  0
    0.5401   -0.9159    0.0000 H   0  0  0  0  0  0  0  0  0  0  0  0
   -0.2700   -1.0718    0.0000 C   0  0  0  0  0  0  0  0  0  0  0  0
    0.2700   -1.6954    0.0000 N   0  0  0  0  0  0  0  0  0  0  0  0
    0.0000   -2.4750    0.0000 C   0  0  0  0  0  0  0  0  0  0  0  0
    0.5401   -3.0986    0.0000 O   0  0  0  0  0  0  0  0  0  0  0  0
   -0.8101   -2.6309    0.0000 C   0  0  0  0  0  0  0  0  0  0  0  0
   -1.1602   -3.3780    0.0000 C   0  0  0  0  0  0  0  0  0  0  0  0
   -0.7616   -4.1003    0.0000 H   0  0  0  0  0  0  0  0  0  0  0  0
   -1.9788   -3.2759    0.0000 N   0  0  0  0  0  0  0  0  0  0  0  0
   -2.5426   -3.8782    0.0000 H   0  0  0  0  0  0  0  0  0  0  0  0
   -2.1348   -2.4658    0.0000 C   0  0  0  0  0  0  0  0  0  0  0  0
   -2.8818   -2.1157    0.0000 O   0  0  0  0  0  0  0  0  0  0  0  0
   -1.4125   -2.0671    0.0000 N   0  0  0  0  0  0  0  0  0  0  0  0
   -2.0318   -1.5221    0.0000 H   0  0  0  0  0  0  0  0  0  0  0  0
    1.0802   -1.5395    0.0000 C   0  0  0  0  0  0  0  0  0  0  0  0
    1.6203   -2.1632    0.0000 C   0  0  0  0  0  0  0  0  0  0  0  0
    1.3502   -2.9427    0.0000 O   0  0  0  0  0  0  0  0  0  0  0  0
    2.4304   -2.0073    0.0000 N   0  0  0  0  0  0  0  0  0  0  0  0
    2.9705   -2.6309    0.0000 C   0  0  0  0  0  0  0  0  0  0  0  0
    3.7806   -2.4750    0.0000 C   0  0  0  0  0  0  0  0  0  0  0  0
    4.3207   -3.0986    0.0000 C   0  0  0  0  0  0  0  0  0  0  0  0
    5.1308   -2.9427    0.0000 C   0  0  0  0  0  0  0  0  0  0  0  0
    5.4009   -2.1632    0.0000 H   0  0  0  0  0  0  0  0  0  0  0  0
    5.6709   -3.5664    0.0000 C   0  0  0  0  0  0  0  0  0  0  0  0
    6.4811   -3.4105    0.0000 H   0  0  0  0  0  0  0  0  0  0  0  0
    5.4009   -4.3459    0.0000 C   0  0  0  0  0  0  0  0  0  0  0  0
    5.9410   -4.9696    0.0000 H   0  0  0  0  0  0  0  0  0  0  0  0
    4.5908   -4.5018    0.0000 C   0  0  0  0  0  0  0  0  0  0  0  0
    4.3207   -5.2814    0.0000 F   0  0  0  0  0  0  0  0  0  0  0  0
    4.0507   -3.8782    0.0000 C   0  0  0  0  0  0  0  0  0  0  0  0
    3.2405   -4.0341    0.0000 H   0  0  0  0  0  0  0  0  0  0  0  0
    4.3718   -1.8996    0.0000 H   0  0  0  0  0  0  0  0  0  0  0  0
    3.6721   -1.6572    0.0000 H   0  0  0  0  0  0  0  0  0  0  0  0
    2.3793   -3.2063    0.0000 H   0  0  0  0  0  0  0  0  0  0  0  0
    3.0790   -3.4487    0.0000 H   0  0  0  0  0  0  0  0  0  0  0  0
    2.7004   -1.2277    0.0000 H   0  0  0  0  0  0  0  0  0  0  0  0
    1.3502   -0.7600    0.0000 C   0  0  0  0  0  0  0  0  0  0  0  0
    0.8101   -0.1363    0.0000 C   0  0  0  0  0  0  0  0  0  0  0  0
    1.6203    0.0196    0.0000 H   0  0  0  0  0  0  0  0  0  0  0  0
    1.0802    0.6432    0.0000 C   0  0  0  0  0  0  0  0  0  0  0  0
    0.9709    1.4609    0.0000 H   0  0  0  0  0  0  0  0  0  0  0  0
    1.8903    0.7991    0.0000 C   0  0  0  0  0  0  0  0  0  0  0  0
    2.1604    1.5787    0.0000 H   0  0  0  0  0  0  0  0  0  0  0  0
    2.4304    0.1755    0.0000 N   0  0  0  0  0  0  0  0  0  0  0  0
    2.1604   -0.6041    0.0000 C   0  0  0  0  0  0  0  0  0  0  0  0
    1.8903   -1.3836    0.0000 H   0  0  0  0  0  0  0  0  0  0  0  0
    0.8101   -2.3191    0.0000 H   0  0  0  0  0  0  0  0  0  0  0  0
   -1.0802   -1.2277    0.0000 C   0  0  0  0  0  0  0  0  0  0  0  0
   -1.8935   -1.3660    0.0000 H   0  0  0  0  0  0  0  0  0  0  0  0
   -1.6203   -0.6041    0.0000 C   0  0  0  0  0  0  0  0  0  0  0  0
   -0.8101   -0.4482    0.0000 H   0  0  0  0  0  0  0  0  0  0  0  0
   -1.8068    1.9628    0.0000 H   0  0  0  0  0  0  0  0  0  0  0  0
   -2.9705    2.0464    0.0000 H   0  0  0  0  0  0  0  0  0  0  0  0
   -3.0540    0.8827    0.0000 H   0  0  0  0  0  0  0  0  0  0  0  0
  1  2  1  0  0  0  0
  2  3  1  0  0  0  0
  3  4  1  0  0  0  0
  3  5  1  0  0  0  0
  3  6  1  0  0  0  0
  2  7  1  0  0  0  0
  7  8  1  0  0  0  0
  7  9  1  0  0  0  0
  7 10  1  0  0  0  0
  2 11  1  0  0  0  0
 11 12  2  0  0  0  0
 12 13  1  0  0  0  0
 12 14  1  0  0  0  0
 14 15  1  0  0  0  0
 14 16  2  0  0  0  0
 16 17  1  0  0  0  0
 17 18  1  0  0  0  0
 18 19  2  0  0  0  0
 18 20  1  0  0  0  0
 20 21  4  0  0  0  0
 21 22  1  0  0  0  0
 21 23  4  0  0  0  0
 23 24  1  0  0  0  0
 23 25  4  0  0  0  0
 25 26  2  0  0  0  0
 25 27  4  0  0  0  0
 20 27  4  0  0  0  0
 27 28  1  0  0  0  0
 17 29  1  0  0  0  0
 29 30  1  0  0  0  0
 30 31  2  0  0  0  0
 30 32  1  0  0  0  0
 32 33  1  0  0  0  0
 33 34  1  0  0  0  0
 34 35  1  0  0  0  0
 35 36  2  0  0  0  0
 36 37  1  0  0  0  0
 36 38  1  0  0  0  0
 38 39  1  0  0  0  0
 38 40  2  0  0  0  0
 40 41  1  0  0  0  0
 40 42  1  0  0  0  0
 42 43  1  0  0  0  0
 42 44  2  0  0  0  0
 35 44  1  0  0  0  0
 44 45  1  0  0  0  0
 34 46  1  0  0  0  0
 34 47  1  0  0  0  0
 33 48  1  0  0  0  0
 33 49  1  0  0  0  0
 32 50  1  0  0  0  0
 29 51  1  0  0  0  0
 51 52  2  0  0  0  0
 52 53  1  0  0  0  0
 52 54  1  0  0  0  0
 54 55  1  0  0  0  0
 54 56  2  0  0  0  0
 56 57  1  0  0  0  0
 56 58  1  0  0  0  0
 58 59  2  0  0  0  0
 51 59  1  0  0  0  0
 59 60  1  0  0  0  0
 29 61  1  0  0  0  0
 16 62  1  0  0  0  0
 62 63  1  0  0  0  0
 62 64  2  0  0  0  0
 11 64  1  0  0  0  0
 64 65  1  0  0  0  0
  1 66  1  0  0  0  0
  1 67  1  0  0  0  0
  1 68  1  0  0  0  0
M  END
> <Potency>
15.9177746369786

> <pIC50>
4.798117648309078

> <Outcome>
Inactive

> <is_active>
0

$$$$

  Mrv1921 08232120312D          

 69 72  0  0  0  0            999 V2000
   -2.8818   -2.1157    0.0000 C   0  0  0  0  0  0  0  0  0  0  0  0
   -2.1348   -2.4658    0.0000 N   0  0  0  0  0  0  0  0  0  0  0  0
   -1.9788   -3.2759    0.0000 C   0  0  0  0  0  0  0  0  0  0  0  0
   -2.5426   -3.8782    0.0000 H   0  0  0  0  0  0  0  0  0  0  0  0
   -1.1602   -3.3780    0.0000 N   0  0  0  0  0  0  0  0  0  0  0  0
   -0.8101   -2.6309    0.0000 C   0  0  0  0  0  0  0  0  0  0  0  0
    0.0000   -2.4750    0.0000 C   0  0  0  0  0  0  0  0  0  0  0  0
    0.5401   -3.0986    0.0000 O   0  0  0  0  0  0  0  0  0  0  0  0
    0.2700   -1.6954    0.0000 N   0  0  0  0  0  0  0  0  0  0  0  0
   -0.2700   -1.0718    0.0000 C   0  0  0  0  0  0  0  0  0  0  0  0
   -1.0802   -1.2277    0.0000 C   0  0  0  0  0  0  0  0  0  0  0  0
   -0.5538   -1.8629    0.0000 H   0  0  0  0  0  0  0  0  0  0  0  0
   -1.6203   -0.6041    0.0000 C   0  0  0  0  0  0  0  0  0  0  0  0
   -2.4304   -0.7600    0.0000 H   0  0  0  0  0  0  0  0  0  0  0  0
   -1.3502    0.1755    0.0000 C   0  0  0  0  0  0  0  0  0  0  0  0
   -1.8903    0.7991    0.0000 C   0  0  0  0  0  0  0  0  0  0  0  0
   -2.4304    1.4228    0.0000 C   0  0  0  0  0  0  0  0  0  0  0  0
   -1.8068    1.9628    0.0000 H   0  0  0  0  0  0  0  0  0  0  0  0
   -2.9705    2.0464    0.0000 H   0  0  0  0  0  0  0  0  0  0  0  0
   -3.0540    0.8827    0.0000 H   0  0  0  0  0  0  0  0  0  0  0  0
   -2.5140    0.2590    0.0000 C   0  0  0  0  0  0  0  0  0  0  0  0
   -3.2968   -0.0013    0.0000 H   0  0  0  0  0  0  0  0  0  0  0  0
   -2.5730   -0.5639    0.0000 H   0  0  0  0  0  0  0  0  0  0  0  0
   -1.7763   -0.1105    0.0000 H   0  0  0  0  0  0  0  0  0  0  0  0
   -1.2667    1.3392    0.0000 C   0  0  0  0  0  0  0  0  0  0  0  0
   -1.0064    0.5564    0.0000 H   0  0  0  0  0  0  0  0  0  0  0  0
   -0.4438    1.2801    0.0000 H   0  0  0  0  0  0  0  0  0  0  0  0
   -0.8972    2.0768    0.0000 H   0  0  0  0  0  0  0  0  0  0  0  0
   -0.5401    0.3314    0.0000 C   0  0  0  0  0  0  0  0  0  0  0  0
    0.2465    0.5801    0.0000 H   0  0  0  0  0  0  0  0  0  0  0  0
    0.0000   -0.2923    0.0000 C   0  0  0  0  0  0  0  0  0  0  0  0
    0.5401   -0.9159    0.0000 H   0  0  0  0  0  0  0  0  0  0  0  0
    1.0802   -1.5395    0.0000 C   0  0  0  0  0  0  0  0  0  0  0  0
    1.6203   -2.1632    0.0000 C   0  0  0  0  0  0  0  0  0  0  0  0
    1.3502   -2.9427    0.0000 O   0  0  0  0  0  0  0  0  0  0  0  0
    2.4304   -2.0073    0.0000 N   0  0  0  0  0  0  0  0  0  0  0  0
    2.9705   -2.6309    0.0000 C   0  0  0  0  0  0  0  0  0  0  0  0
    3.7806   -2.4750    0.0000 C   0  0  0  0  0  0  0  0  0  0  0  0
    4.3207   -3.0986    0.0000 C   0  0  0  0  0  0  0  0  0  0  0  0
    5.1308   -2.9427    0.0000 C   0  0  0  0  0  0  0  0  0  0  0  0
    5.4009   -2.1632    0.0000 H   0  0  0  0  0  0  0  0  0  0  0  0
    5.6709   -3.5664    0.0000 C   0  0  0  0  0  0  0  0  0  0  0  0
    6.4811   -3.4105    0.0000 H   0  0  0  0  0  0  0  0  0  0  0  0
    5.4009   -4.3459    0.0000 C   0  0  0  0  0  0  0  0  0  0  0  0
    5.9410   -4.9696    0.0000 H   0  0  0  0  0  0  0  0  0  0  0  0
    4.5908   -4.5018    0.0000 C   0  0  0  0  0  0  0  0  0  0  0  0
    4.3207   -5.2814    0.0000 F   0  0  0  0  0  0  0  0  0  0  0  0
    4.0507   -3.8782    0.0000 C   0  0  0  0  0  0  0  0  0  0  0  0
    3.2405   -4.0341    0.0000 H   0  0  0  0  0  0  0  0  0  0  0  0
    4.3718   -1.8996    0.0000 H   0  0  0  0  0  0  0  0  0  0  0  0
    3.6721   -1.6572    0.0000 H   0  0  0  0  0  0  0  0  0  0  0  0
    2.3793   -3.2063    0.0000 H   0  0  0  0  0  0  0  0  0  0  0  0
    3.0790   -3.4487    0.0000 H   0  0  0  0  0  0  0  0  0  0  0  0
    2.7004   -1.2277    0.0000 H   0  0  0  0  0  0  0  0  0  0  0  0
    1.3502   -0.7600    0.0000 C   0  0  0  0  0  0  0  0  0  0  0  0
    0.8101   -0.1363    0.0000 C   0  0  0  0  0  0  0  0  0  0  0  0
    1.6203    0.0196    0.0000 H   0  0  0  0  0  0  0  0  0  0  0  0
    1.0802    0.6432    0.0000 C   0  0  0  0  0  0  0  0  0  0  0  0
    0.9709    1.4609    0.0000 H   0  0  0  0  0  0  0  0  0  0  0  0
    1.8903    0.7991    0.0000 C   0  0  0  0  0  0  0  0  0  0  0  0
    2.1604    1.5787    0.0000 H   0  0  0  0  0  0  0  0  0  0  0  0
    2.4304    0.1755    0.0000 N   0  0  0  0  0  0  0  0  0  0  0  0
    2.1604   -0.6041    0.0000 C   0  0  0  0  0  0  0  0  0  0  0  0
    1.8903   -1.3836    0.0000 H   0  0  0  0  0  0  0  0  0  0  0  0
    0.8101   -2.3191    0.0000 H   0  0  0  0  0  0  0  0  0  0  0  0
   -1.4125   -2.0671    0.0000 N   0  0  0  0  0  0  0  0  0  0  0  0
   -2.5318   -1.3687    0.0000 H   0  0  0  0  0  0  0  0  0  0  0  0
   -3.6289   -1.7657    0.0000 H   0  0  0  0  0  0  0  0  0  0  0  0
   -3.2319   -2.8628    0.0000 H   0  0  0  0  0  0  0  0  0  0  0  0
  1  2  1  0  0  0  0
  2  3  1  0  0  0  0
  3  4  1  0  0  0  0
  3  5  2  0  0  0  0
  5  6  1  0  0  0  0
  6  7  1  0  0  0  0
  7  8  2  0  0  0  0
  7  9  1  0  0  0  0
  9 10  1  0  0  0  0
 10 11  2  0  0  0  0
 11 12  1  0  0  0  0
 11 13  1  0  0  0  0
 13 14  1  0  0  0  0
 13 15  2  0  0  0  0
 15 16  1  0  0  0  0
 16 17  1  0  0  0  0
 17 18  1  0  0  0  0
 17 19  1  0  0  0  0
 17 20  1  0  0  0  0
 16 21  1  0  0  0  0
 21 22  1  0  0  0  0
 21 23  1  0  0  0  0
 21 24  1  0  0  0  0
 16 25  1  0  0  0  0
 25 26  1  0  0  0  0
 25 27  1  0  0  0  0
 25 28  1  0  0  0  0
 15 29  1  0  0  0  0
 29 30  1  0  0  0  0
 29 31  2  0  0  0  0
 10 31  1  0  0  0  0
 31 32  1  0  0  0  0
  9 33  1  0  0  0  0
 33 34  1  0  0  0  0
 34 35  2  0  0  0  0
 34 36  1  0  0  0  0
 36 37  1  0  0  0  0
 37 38  1  0  0  0  0
 38 39  1  0  0  0  0
 39 40  2  0  0  0  0
 40 41  1  0  0  0  0
 40 42  1  0  0  0  0
 42 43  1  0  0  0  0
 42 44  2  0  0  0  0
 44 45  1  0  0  0  0
 44 46  1  0  0  0  0
 46 47  1  0  0  0  0
 46 48  2  0  0  0  0
 39 48  1  0  0  0  0
 48 49  1  0  0  0  0
 38 50  1  0  0  0  0
 38 51  1  0  0  0  0
 37 52  1  0  0  0  0
 37 53  1  0  0  0  0
 36 54  1  0  0  0  0
 33 55  1  0  0  0  0
 55 56  2  0  0  0  0
 56 57  1  0  0  0  0
 56 58  1  0  0  0  0
 58 59  1  0  0  0  0
 58 60  2  0  0  0  0
 60 61  1  0  0  0  0
 60 62  1  0  0  0  0
 62 63  2  0  0  0  0
 55 63  1  0  0  0  0
 63 64  1  0  0  0  0
 33 65  1  0  0  0  0
  6 66  2  0  0  0  0
  2 66  1  0  0  0  0
  1 67  1  0  0  0  0
  1 68  1  0  0  0  0
  1 69  1  0  0  0  0
M  END
> <Potency>
74.1510131536458

> <pIC50>
4.1298829106634924

> <Outcome>
Inactive

> <is_active>
0

$$$$

  Mrv1921 08232120312D          

 68 71  0  0  0  0            999 V2000
   -2.4304    1.4228    0.0000 C   0  0  0  0  0  0  0  0  0  0  0  0
   -1.8903    0.7991    0.0000 C   0  0  0  0  0  0  0  0  0  0  0  0
   -2.5140    0.2590    0.0000 C   0  0  0  0  0  0  0  0  0  0  0  0
   -3.2968   -0.0013    0.0000 H   0  0  0  0  0  0  0  0  0  0  0  0
   -2.5730   -0.5639    0.0000 H   0  0  0  0  0  0  0  0  0  0  0  0
   -1.7763   -0.1105    0.0000 H   0  0  0  0  0  0  0  0  0  0  0  0
   -1.2667    1.3392    0.0000 C   0  0  0  0  0  0  0  0  0  0  0  0
   -1.0064    0.5564    0.0000 H   0  0  0  0  0  0  0  0  0  0  0  0
   -0.4438    1.2801    0.0000 H   0  0  0  0  0  0  0  0  0  0  0  0
   -0.8972    2.0768    0.0000 H   0  0  0  0  0  0  0  0  0  0  0  0
   -1.3502    0.1755    0.0000 C   0  0  0  0  0  0  0  0  0  0  0  0
   -0.5401    0.3314    0.0000 C   0  0  0  0  0  0  0  0  0  0  0  0
    0.2465    0.5801    0.0000 H   0  0  0  0  0  0  0  0  0  0  0  0
    0.0000   -0.2923    0.0000 C   0  0  0  0  0  0  0  0  0  0  0  0
    0.5401   -0.9159    0.0000 H   0  0  0  0  0  0  0  0  0  0  0  0
   -0.2700   -1.0718    0.0000 C   0  0  0  0  0  0  0  0  0  0  0  0
    0.2700   -1.6954    0.0000 N   0  0  0  0  0  0  0  0  0  0  0  0
    0.0000   -2.4750    0.0000 C   0  0  0  0  0  0  0  0  0  0  0  0
    0.5401   -3.0986    0.0000 O   0  0  0  0  0  0  0  0  0  0  0  0
   -0.8101   -2.6309    0.0000 C   0  0  0  0  0  0  0  0  0  0  0  0
   -1.1602   -3.3780    0.0000 C   0  0  0  0  0  0  0  0  0  0  0  0
   -0.7616   -4.1003    0.0000 H   0  0  0  0  0  0  0  0  0  0  0  0
   -1.9788   -3.2759    0.0000 C   0  0  0  0  0  0  0  0  0  0  0  0
   -2.5426   -3.8782    0.0000 O   0  0  0  0  0  0  0  0  0  0  0  0
   -2.1348   -2.4658    0.0000 N   0  0  0  0  0  0  0  0  0  0  0  0
   -2.8818   -2.1157    0.0000 H   0  0  0  0  0  0  0  0  0  0  0  0
   -1.4125   -2.0671    0.0000 N   0  0  0  0  0  0  0  0  0  0  0  0
   -2.0318   -1.5221    0.0000 H   0  0  0  0  0  0  0  0  0  0  0  0
    1.0802   -1.5395    0.0000 C   0  0  0  0  0  0  0  0  0  0  0  0
    1.6203   -2.1632    0.0000 C   0  0  0  0  0  0  0  0  0  0  0  0
    1.3502   -2.9427    0.0000 O   0  0  0  0  0  0  0  0  0  0  0  0
    2.4304   -2.0073    0.0000 N   0  0  0  0  0  0  0  0  0  0  0  0
    2.9705   -2.6309    0.0000 C   0  0  0  0  0  0  0  0  0  0  0  0
    3.7806   -2.4750    0.0000 C   0  0  0  0  0  0  0  0  0  0  0  0
    4.3207   -3.0986    0.0000 C   0  0  0  0  0  0  0  0  0  0  0  0
    5.1308   -2.9427    0.0000 C   0  0  0  0  0  0  0  0  0  0  0  0
    5.4009   -2.1632    0.0000 H   0  0  0  0  0  0  0  0  0  0  0  0
    5.6709   -3.5664    0.0000 C   0  0  0  0  0  0  0  0  0  0  0  0
    6.4811   -3.4105    0.0000 H   0  0  0  0  0  0  0  0  0  0  0  0
    5.4009   -4.3459    0.0000 C   0  0  0  0  0  0  0  0  0  0  0  0
    5.9410   -4.9696    0.0000 H   0  0  0  0  0  0  0  0  0  0  0  0
    4.5908   -4.5018    0.0000 C   0  0  0  0  0  0  0  0  0  0  0  0
    4.3207   -5.2814    0.0000 F   0  0  0  0  0  0  0  0  0  0  0  0
    4.0507   -3.8782    0.0000 C   0  0  0  0  0  0  0  0  0  0  0  0
    3.2405   -4.0341    0.0000 H   0  0  0  0  0  0  0  0  0  0  0  0
    4.3718   -1.8996    0.0000 H   0  0  0  0  0  0  0  0  0  0  0  0
    3.6721   -1.6572    0.0000 H   0  0  0  0  0  0  0  0  0  0  0  0
    2.3793   -3.2063    0.0000 H   0  0  0  0  0  0  0  0  0  0  0  0
    3.0790   -3.4487    0.0000 H   0  0  0  0  0  0  0  0  0  0  0  0
    2.7004   -1.2277    0.0000 H   0  0  0  0  0  0  0  0  0  0  0  0
    1.3502   -0.7600    0.0000 C   0  0  0  0  0  0  0  0  0  0  0  0
    0.8101   -0.1363    0.0000 C   0  0  0  0  0  0  0  0  0  0  0  0
    1.6203    0.0196    0.0000 H   0  0  0  0  0  0  0  0  0  0  0  0
    1.0802    0.6432    0.0000 C   0  0  0  0  0  0  0  0  0  0  0  0
    0.9709    1.4609    0.0000 H   0  0  0  0  0  0  0  0  0  0  0  0
    1.8903    0.7991    0.0000 C   0  0  0  0  0  0  0  0  0  0  0  0
    2.1604    1.5787    0.0000 H   0  0  0  0  0  0  0  0  0  0  0  0
    2.4304    0.1755    0.0000 N   0  0  0  0  0  0  0  0  0  0  0  0
    2.1604   -0.6041    0.0000 C   0  0  0  0  0  0  0  0  0  0  0  0
    1.8903   -1.3836    0.0000 H   0  0  0  0  0  0  0  0  0  0  0  0
    0.8101   -2.3191    0.0000 H   0  0  0  0  0  0  0  0  0  0  0  0
   -1.0802   -1.2277    0.0000 C   0  0  0  0  0  0  0  0  0  0  0  0
   -1.8935   -1.3660    0.0000 H   0  0  0  0  0  0  0  0  0  0  0  0
   -1.6203   -0.6041    0.0000 C   0  0  0  0  0  0  0  0  0  0  0  0
   -0.8101   -0.4482    0.0000 H   0  0  0  0  0  0  0  0  0  0  0  0
   -1.8068    1.9628    0.0000 H   0  0  0  0  0  0  0  0  0  0  0  0
   -2.9705    2.0464    0.0000 H   0  0  0  0  0  0  0  0  0  0  0  0
   -3.0540    0.8827    0.0000 H   0  0  0  0  0  0  0  0  0  0  0  0
  1  2  1  0  0  0  0
  2  3  1  0  0  0  0
  3  4  1  0  0  0  0
  3  5  1  0  0  0  0
  3  6  1  0  0  0  0
  2  7  1  0  0  0  0
  7  8  1  0  0  0  0
  7  9  1  0  0  0  0
  7 10  1  0  0  0  0
  2 11  1  0  0  0  0
 11 12  2  0  0  0  0
 12 13  1  0  0  0  0
 12 14  1  0  0  0  0
 14 15  1  0  0  0  0
 14 16  2  0  0  0  0
 16 17  1  0  0  0  0
 17 18  1  0  0  0  0
 18 19  2  0  0  0  0
 18 20  1  0  0  0  0
 20 21  4  0  0  0  0
 21 22  1  0  0  0  0
 21 23  4  0  0  0  0
 23 24  2  0  0  0  0
 23 25  4  0  0  0  0
 25 26  1  0  0  0  0
 25 27  4  0  0  0  0
 20 27  4  0  0  0  0
 27 28  1  0  0  0  0
 17 29  1  0  0  0  0
 29 30  1  0  0  0  0
 30 31  2  0  0  0  0
 30 32  1  0  0  0  0
 32 33  1  0  0  0  0
 33 34  1  0  0  0  0
 34 35  1  0  0  0  0
 35 36  2  0  0  0  0
 36 37  1  0  0  0  0
 36 38  1  0  0  0  0
 38 39  1  0  0  0  0
 38 40  2  0  0  0  0
 40 41  1  0  0  0  0
 40 42  1  0  0  0  0
 42 43  1  0  0  0  0
 42 44  2  0  0  0  0
 35 44  1  0  0  0  0
 44 45  1  0  0  0  0
 34 46  1  0  0  0  0
 34 47  1  0  0  0  0
 33 48  1  0  0  0  0
 33 49  1  0  0  0  0
 32 50  1  0  0  0  0
 29 51  1  0  0  0  0
 51 52  2  0  0  0  0
 52 53  1  0  0  0  0
 52 54  1  0  0  0  0
 54 55  1  0  0  0  0
 54 56  2  0  0  0  0
 56 57  1  0  0  0  0
 56 58  1  0  0  0  0
 58 59  2  0  0  0  0
 51 59  1  0  0  0  0
 59 60  1  0  0  0  0
 29 61  1  0  0  0  0
 16 62  1  0  0  0  0
 62 63  1  0  0  0  0
 62 64  2  0  0  0  0
 11 64  1  0  0  0  0
 64 65  1  0  0  0  0
  1 66  1  0  0  0  0
  1 67  1  0  0  0  0
  1 68  1  0  0  0  0
M  END
> <Potency>
39.7009452090415

> <pIC50>
4.401199153332998

> <Outcome>
Inactive

> <is_active>
0

$$$$

  Mrv1921 08232120312D          

 39 40  0  0  0  0            999 V2000
    2.8579   -1.6500    0.0000 C   0  0  0  0  0  0  0  0  0  0  0  0
    2.8579   -2.4750    0.0000 C   0  0  0  0  0  0  0  0  0  0  0  0
    3.5724   -2.8875    0.0000 C   0  0  0  0  0  0  0  0  0  0  0  0
    4.3974   -2.8875    0.0000 H   0  0  0  0  0  0  0  0  0  0  0  0
    3.5724   -3.7125    0.0000 C   0  0  0  0  0  0  0  0  0  0  0  0
    4.2868   -4.1250    0.0000 H   0  0  0  0  0  0  0  0  0  0  0  0
    2.8579   -4.1250    0.0000 N   0  0  0  0  0  0  0  0  0  0  0  0
    2.1434   -3.7125    0.0000 C   0  0  0  0  0  0  0  0  0  0  0  0
    1.4289   -4.1250    0.0000 H   0  0  0  0  0  0  0  0  0  0  0  0
    2.1434   -2.8875    0.0000 C   0  0  0  0  0  0  0  0  0  0  0  0
    1.4289   -2.4750    0.0000 N   0  0  0  0  0  0  0  0  0  0  0  0
    1.4289   -1.6500    0.0000 C   0  0  0  0  0  0  0  0  0  0  0  0
    2.1434   -1.2375    0.0000 O   0  0  0  0  0  0  0  0  0  0  0  0
    0.7145   -1.2375    0.0000 C   0  0  0  0  0  0  0  0  0  0  0  0
    0.7145   -0.4125    0.0000 N   0  0  0  0  0  0  0  0  0  0  0  0
    0.0000    0.0000    0.0000 C   0  0  0  0  0  0  0  0  0  0  0  0
   -0.8236   -0.0480    0.0000 H   0  0  0  0  0  0  0  0  0  0  0  0
   -0.4533   -0.6893    0.0000 H   0  0  0  0  0  0  0  0  0  0  0  0
    0.0000    0.8250    0.0000 C   0  0  0  0  0  0  0  0  0  0  0  0
   -0.4533    1.5143    0.0000 H   0  0  0  0  0  0  0  0  0  0  0  0
   -0.8236    0.8730    0.0000 H   0  0  0  0  0  0  0  0  0  0  0  0
    0.7145    1.2375    0.0000 C   0  0  0  0  0  0  0  0  0  0  0  0
    0.7145    2.0625    0.0000 C   0  0  0  0  0  0  0  0  0  0  0  0
    1.2978    2.6459    0.0000 H   0  0  0  0  0  0  0  0  0  0  0  0
    0.3020    2.7770    0.0000 H   0  0  0  0  0  0  0  0  0  0  0  0
   -0.0824    1.8490    0.0000 H   0  0  0  0  0  0  0  0  0  0  0  0
    1.4289    1.6500    0.0000 H   0  0  0  0  0  0  0  0  0  0  0  0
    1.4289    0.8250    0.0000 C   0  0  0  0  0  0  0  0  0  0  0  0
    2.2042    0.5428    0.0000 H   0  0  0  0  0  0  0  0  0  0  0  0
    2.2042    1.1072    0.0000 H   0  0  0  0  0  0  0  0  0  0  0  0
    1.4289    0.0000    0.0000 C   0  0  0  0  0  0  0  0  0  0  0  0
    1.5997   -0.8071    0.0000 H   0  0  0  0  0  0  0  0  0  0  0  0
    2.0883   -0.4959    0.0000 H   0  0  0  0  0  0  0  0  0  0  0  0
   -0.1091   -1.2855    0.0000 H   0  0  0  0  0  0  0  0  0  0  0  0
    0.2611   -1.9268    0.0000 H   0  0  0  0  0  0  0  0  0  0  0  0
    0.7145   -2.8875    0.0000 H   0  0  0  0  0  0  0  0  0  0  0  0
    3.5724   -2.0625    0.0000 H   0  0  0  0  0  0  0  0  0  0  0  0
    3.5724   -1.2375    0.0000 H   0  0  0  0  0  0  0  0  0  0  0  0
    2.8579   -0.8250    0.0000 H   0  0  0  0  0  0  0  0  0  0  0  0
  1  2  1  0  0  0  0
  2  3  2  0  0  0  0
  3  4  1  0  0  0  0
  3  5  1  0  0  0  0
  5  6  1  0  0  0  0
  5  7  2  0  0  0  0
  7  8  1  0  0  0  0
  8  9  1  0  0  0  0
  8 10  2  0  0  0  0
  2 10  1  0  0  0  0
 10 11  1  0  0  0  0
 11 12  1  0  0  0  0
 12 13  2  0  0  0  0
 12 14  1  0  0  0  0
 14 15  1  0  0  0  0
 15 16  1  0  0  0  0
 16 17  1  0  0  0  0
 16 18  1  0  0  0  0
 16 19  1  0  0  0  0
 19 20  1  0  0  0  0
 19 21  1  0  0  0  0
 19 22  1  0  0  0  0
 22 23  1  0  0  0  0
 23 24  1  0  0  0  0
 23 25  1  0  0  0  0
 23 26  1  0  0  0  0
 22 27  1  0  0  0  0
 22 28  1  0  0  0  0
 28 29  1  0  0  0  0
 28 30  1  0  0  0  0
 28 31  1  0  0  0  0
 15 31  1  0  0  0  0
 31 32  1  0  0  0  0
 31 33  1  0  0  0  0
 14 34  1  0  0  0  0
 14 35  1  0  0  0  0
 11 36  1  0  0  0  0
  1 37  1  0  0  0  0
  1 38  1  0  0  0  0
  1 39  1  0  0  0  0
M  END
> <Potency>
49.1501397208653

> <pIC50>
4.308475243245588

> <Outcome>
Inactive

> <is_active>
0

$$$$

  Mrv1921 08232120312D          

 39 42  0  0  0  0            999 V2000
    0.0000   -2.4750    0.0000 O   0  0  0  0  0  0  0  0  0  0  0  0
    0.7145   -2.8875    0.0000 C   0  0  0  0  0  0  0  0  0  0  0  0
    0.7145   -3.7125    0.0000 C   0  0  0  0  0  0  0  0  0  0  0  0
    0.0000   -4.1250    0.0000 C   0  0  0  0  0  0  0  0  0  0  0  0
    0.0000   -4.9500    0.0000 C   0  0  0  0  0  0  0  0  0  0  0  0
    0.7145   -5.3625    0.0000 H   0  0  0  0  0  0  0  0  0  0  0  0
   -0.7145   -5.3625    0.0000 C   0  0  0  0  0  0  0  0  0  0  0  0
   -0.7145   -6.1875    0.0000 Cl  0  0  0  0  0  0  0  0  0  0  0  0
   -1.4289   -4.9500    0.0000 C   0  0  0  0  0  0  0  0  0  0  0  0
   -2.1434   -5.3625    0.0000 H   0  0  0  0  0  0  0  0  0  0  0  0
   -1.4289   -4.1250    0.0000 C   0  0  0  0  0  0  0  0  0  0  0  0
   -2.1434   -3.7125    0.0000 C   0  0  0  0  0  0  0  0  0  0  0  0
   -2.8971   -4.0481    0.0000 N   0  0  0  0  0  0  0  0  0  0  0  0
   -3.4491   -3.4350    0.0000 N   0  0  0  0  0  0  0  0  0  0  0  0
   -3.0366   -2.7205    0.0000 N   0  0  0  0  0  0  0  0  0  0  0  0
   -2.2296   -2.8920    0.0000 N   0  0  0  0  0  0  0  0  0  0  0  0
   -1.6166   -2.3400    0.0000 H   0  0  0  0  0  0  0  0  0  0  0  0
   -0.7145   -3.7125    0.0000 C   0  0  0  0  0  0  0  0  0  0  0  0
   -0.7145   -2.8875    0.0000 H   0  0  0  0  0  0  0  0  0  0  0  0
    1.1678   -4.4018    0.0000 H   0  0  0  0  0  0  0  0  0  0  0  0
    1.5381   -3.7605    0.0000 H   0  0  0  0  0  0  0  0  0  0  0  0
    1.4289   -2.4750    0.0000 N   0  0  0  0  0  0  0  0  0  0  0  0
    1.4289   -1.6500    0.0000 C   0  0  0  0  0  0  0  0  0  0  0  0
    0.7145   -1.2375    0.0000 C   0  0  0  0  0  0  0  0  0  0  0  0
    0.0000   -1.6500    0.0000 H   0  0  0  0  0  0  0  0  0  0  0  0
    0.7145   -0.4125    0.0000 N   0  0  0  0  0  0  0  0  0  0  0  0
    1.4289    0.0000    0.0000 C   0  0  0  0  0  0  0  0  0  0  0  0
    1.4289    0.8250    0.0000 H   0  0  0  0  0  0  0  0  0  0  0  0
    2.1434   -0.4125    0.0000 C   0  0  0  0  0  0  0  0  0  0  0  0
    2.8579    0.0000    0.0000 C   0  0  0  0  0  0  0  0  0  0  0  0
    3.5724   -0.4125    0.0000 C   0  0  0  0  0  0  0  0  0  0  0  0
    3.5724   -1.2375    0.0000 C   0  0  0  0  0  0  0  0  0  0  0  0
    2.8579   -1.6500    0.0000 C   0  0  0  0  0  0  0  0  0  0  0  0
    2.8579   -2.4750    0.0000 H   0  0  0  0  0  0  0  0  0  0  0  0
    2.1434   -1.2375    0.0000 C   0  0  0  0  0  0  0  0  0  0  0  0
    4.2868   -1.6500    0.0000 H   0  0  0  0  0  0  0  0  0  0  0  0
    4.2868   -0.0000    0.0000 H   0  0  0  0  0  0  0  0  0  0  0  0
    2.8579    0.8250    0.0000 H   0  0  0  0  0  0  0  0  0  0  0  0
    2.1434   -2.8875    0.0000 H   0  0  0  0  0  0  0  0  0  0  0  0
  1  2  2  0  0  0  0
  2  3  1  0  0  0  0
  3  4  1  0  0  0  0
  4  5  2  0  0  0  0
  5  6  1  0  0  0  0
  5  7  1  0  0  0  0
  7  8  1  0  0  0  0
  7  9  2  0  0  0  0
  9 10  1  0  0  0  0
  9 11  1  0  0  0  0
 11 12  1  0  0  0  0
 12 13  2  0  0  0  0
 13 14  1  0  0  0  0
 14 15  2  0  0  0  0
 15 16  1  0  0  0  0
 12 16  1  0  0  0  0
 16 17  1  0  0  0  0
 11 18  2  0  0  0  0
  4 18  1  0  0  0  0
 18 19  1  0  0  0  0
  3 20  1  0  0  0  0
  3 21  1  0  0  0  0
  2 22  1  0  0  0  0
 22 23  1  0  0  0  0
 23 24  2  0  0  0  0
 24 25  1  0  0  0  0
 24 26  1  0  0  0  0
 26 27  2  0  0  0  0
 27 28  1  0  0  0  0
 27 29  1  0  0  0  0
 29 30  2  0  0  0  0
 30 31  1  0  0  0  0
 31 32  2  0  0  0  0
 32 33  1  0  0  0  0
 33 34  1  0  0  0  0
 33 35  2  0  0  0  0
 23 35  1  0  0  0  0
 29 35  1  0  0  0  0
 32 36  1  0  0  0  0
 31 37  1  0  0  0  0
 30 38  1  0  0  0  0
 22 39  1  0  0  0  0
M  END
> <Potency>
21.3950102628657

> <pIC50>
4.669687500855446

> <Outcome>
Inactive

> <is_active>
0

$$$$

  Mrv1921 08232120312D          

 67 71  0  0  0  0            999 V2000
    4.0055   -7.2381    0.0000 O   0  0  0  0  0  0  0  0  0  0  0  0
    3.7354   -6.4586    0.0000 C   0  0  0  0  0  0  0  0  0  0  0  0
    2.9253   -6.3027    0.0000 N   0  0  0  0  0  0  0  0  0  0  0  0
    2.3852   -6.9263    0.0000 C   0  0  0  0  0  0  0  0  0  0  0  0
    1.5751   -6.7704    0.0000 C   0  0  0  0  0  0  0  0  0  0  0  0
    1.0350   -7.3940    0.0000 C   0  0  0  0  0  0  0  0  0  0  0  0
    1.3050   -8.1736    0.0000 C   0  0  0  0  0  0  0  0  0  0  0  0
    2.1152   -8.3295    0.0000 H   0  0  0  0  0  0  0  0  0  0  0  0
    0.7649   -8.7972    0.0000 C   0  0  0  0  0  0  0  0  0  0  0  0
    1.0350   -9.5768    0.0000 H   0  0  0  0  0  0  0  0  0  0  0  0
   -0.0452   -8.6413    0.0000 C   0  0  0  0  0  0  0  0  0  0  0  0
   -0.5853   -9.2650    0.0000 H   0  0  0  0  0  0  0  0  0  0  0  0
   -0.3152   -7.8618    0.0000 C   0  0  0  0  0  0  0  0  0  0  0  0
   -1.1254   -7.7058    0.0000 F   0  0  0  0  0  0  0  0  0  0  0  0
    0.2248   -7.2381    0.0000 C   0  0  0  0  0  0  0  0  0  0  0  0
   -0.0452   -6.4586    0.0000 H   0  0  0  0  0  0  0  0  0  0  0  0
    1.6836   -5.9526    0.0000 H   0  0  0  0  0  0  0  0  0  0  0  0
    0.9839   -6.1949    0.0000 H   0  0  0  0  0  0  0  0  0  0  0  0
    2.2767   -7.7441    0.0000 H   0  0  0  0  0  0  0  0  0  0  0  0
    2.9764   -7.5017    0.0000 H   0  0  0  0  0  0  0  0  0  0  0  0
    2.6552   -5.5231    0.0000 H   0  0  0  0  0  0  0  0  0  0  0  0
    4.2755   -5.8349    0.0000 C   0  0  0  0  0  0  0  0  0  0  0  0
    4.0055   -5.0554    0.0000 C   0  0  0  0  0  0  0  0  0  0  0  0
    3.1953   -4.8995    0.0000 C   0  0  0  0  0  0  0  0  0  0  0  0
    2.3852   -4.7436    0.0000 H   0  0  0  0  0  0  0  0  0  0  0  0
    2.9253   -4.1199    0.0000 C   0  0  0  0  0  0  0  0  0  0  0  0
    2.3016   -3.5798    0.0000 H   0  0  0  0  0  0  0  0  0  0  0  0
    3.4654   -3.4963    0.0000 C   0  0  0  0  0  0  0  0  0  0  0  0
    3.1953   -2.7167    0.0000 H   0  0  0  0  0  0  0  0  0  0  0  0
    4.2755   -3.6522    0.0000 N   0  0  0  0  0  0  0  0  0  0  0  0
    4.5456   -4.4317    0.0000 C   0  0  0  0  0  0  0  0  0  0  0  0
    4.8325   -5.2052    0.0000 H   0  0  0  0  0  0  0  0  0  0  0  0
    5.0856   -5.9908    0.0000 N   0  0  0  0  0  0  0  0  0  0  0  0
    5.3557   -6.7704    0.0000 C   0  0  0  0  0  0  0  0  0  0  0  0
    4.8156   -7.3940    0.0000 O   0  0  0  0  0  0  0  0  0  0  0  0
    6.1658   -6.9263    0.0000 C   0  0  0  0  0  0  0  0  0  0  0  0
    6.5159   -7.6734    0.0000 C   0  0  0  0  0  0  0  0  0  0  0  0
    6.1173   -8.3957    0.0000 H   0  0  0  0  0  0  0  0  0  0  0  0
    7.3345   -7.5713    0.0000 N   0  0  0  0  0  0  0  0  0  0  0  0
    7.4904   -6.7612    0.0000 C   0  0  0  0  0  0  0  0  0  0  0  0
    8.2758   -7.0139    0.0000 H   0  0  0  0  0  0  0  0  0  0  0  0
    6.7681   -6.3625    0.0000 N   0  0  0  0  0  0  0  0  0  0  0  0
    6.6661   -5.5439    0.0000 H   0  0  0  0  0  0  0  0  0  0  0  0
    5.6257   -5.3672    0.0000 C   0  0  0  0  0  0  0  0  0  0  0  0
    5.4387   -4.5637    0.0000 C   0  0  0  0  0  0  0  0  0  0  0  0
    5.2763   -3.7548    0.0000 H   0  0  0  0  0  0  0  0  0  0  0  0
    6.1987   -4.8846    0.0000 H   0  0  0  0  0  0  0  0  0  0  0  0
    6.1450   -4.1375    0.0000 C   0  0  0  0  0  0  0  0  0  0  0  0
    6.8144   -3.6553    0.0000 H   0  0  0  0  0  0  0  0  0  0  0  0
    6.2944   -3.3261    0.0000 H   0  0  0  0  0  0  0  0  0  0  0  0
    6.7687   -4.6776    0.0000 N   0  0  0  0  0  0  0  0  0  0  0  0
    7.5722   -4.4905    0.0000 C   0  0  0  0  0  0  0  0  0  0  0  0
    7.8119   -3.7011    0.0000 C   0  0  0  0  0  0  0  0  0  0  0  0
    7.2481   -3.0988    0.0000 H   0  0  0  0  0  0  0  0  0  0  0  0
    8.6154   -3.5140    0.0000 C   0  0  0  0  0  0  0  0  0  0  0  0
    8.8552   -2.7246    0.0000 H   0  0  0  0  0  0  0  0  0  0  0  0
    9.1792   -4.1163    0.0000 C   0  0  0  0  0  0  0  0  0  0  0  0
    9.9827   -3.9292    0.0000 H   0  0  0  0  0  0  0  0  0  0  0  0
    8.9395   -4.9057    0.0000 C   0  0  0  0  0  0  0  0  0  0  0  0
    9.5032   -5.5080    0.0000 H   0  0  0  0  0  0  0  0  0  0  0  0
    8.1359   -5.0928    0.0000 C   0  0  0  0  0  0  0  0  0  0  0  0
    7.8962   -5.8822    0.0000 F   0  0  0  0  0  0  0  0  0  0  0  0
    6.4477   -5.4376    0.0000 C   0  0  0  0  0  0  0  0  0  0  0  0
    6.6449   -6.2387    0.0000 H   0  0  0  0  0  0  0  0  0  0  0  0
    7.2201   -5.1476    0.0000 H   0  0  0  0  0  0  0  0  0  0  0  0
    5.9362   -6.1315    0.0000 H   0  0  0  0  0  0  0  0  0  0  0  0
    3.4654   -5.6790    0.0000 H   0  0  0  0  0  0  0  0  0  0  0  0
  1  2  2  0  0  0  0
  2  3  1  0  0  0  0
  3  4  1  0  0  0  0
  4  5  1  0  0  0  0
  5  6  1  0  0  0  0
  6  7  2  0  0  0  0
  7  8  1  0  0  0  0
  7  9  1  0  0  0  0
  9 10  1  0  0  0  0
  9 11  2  0  0  0  0
 11 12  1  0  0  0  0
 11 13  1  0  0  0  0
 13 14  1  0  0  0  0
 13 15  2  0  0  0  0
  6 15  1  0  0  0  0
 15 16  1  0  0  0  0
  5 17  1  0  0  0  0
  5 18  1  0  0  0  0
  4 19  1  0  0  0  0
  4 20  1  0  0  0  0
  3 21  1  0  0  0  0
  2 22  1  0  0  0  0
 22 23  1  0  0  0  0
 23 24  2  0  0  0  0
 24 25  1  0  0  0  0
 24 26  1  0  0  0  0
 26 27  1  0  0  0  0
 26 28  2  0  0  0  0
 28 29  1  0  0  0  0
 28 30  1  0  0  0  0
 30 31  2  0  0  0  0
 23 31  1  0  0  0  0
 31 32  1  0  0  0  0
 22 33  1  0  0  0  0
 33 34  1  0  0  0  0
 34 35  2  0  0  0  0
 34 36  1  0  0  0  0
 36 37  2  0  0  0  0
 37 38  1  0  0  0  0
 37 39  1  0  0  0  0
 39 40  2  0  0  0  0
 40 41  1  0  0  0  0
 40 42  1  0  0  0  0
 36 42  1  0  0  0  0
 42 43  1  0  0  0  0
 33 44  1  0  0  0  0
 44 45  1  0  0  0  0
 45 46  1  0  0  0  0
 45 47  1  0  0  0  0
 45 48  1  0  0  0  0
 48 49  1  0  0  0  0
 48 50  1  0  0  0  0
 48 51  1  0  0  0  0
 51 52  1  0  0  0  0
 52 53  2  0  0  0  0
 53 54  1  0  0  0  0
 53 55  1  0  0  0  0
 55 56  1  0  0  0  0
 55 57  2  0  0  0  0
 57 58  1  0  0  0  0
 57 59  1  0  0  0  0
 59 60  1  0  0  0  0
 59 61  2  0  0  0  0
 52 61  1  0  0  0  0
 61 62  1  0  0  0  0
 51 63  1  0  0  0  0
 44 63  1  0  0  0  0
 63 64  1  0  0  0  0
 63 65  1  0  0  0  0
 44 66  1  0  0  0  0
 22 67  1  0  0  0  0
M  END
> <Potency>
99.0

> <pIC50>
4.00436480540245

> <Outcome>
Inactive

> <is_active>
0

$$$$

  Mrv1921 08232120312D          

 67 71  0  0  0  0            999 V2000
    4.0055   -7.2381    0.0000 O   0  0  0  0  0  0  0  0  0  0  0  0
    3.7354   -6.4586    0.0000 C   0  0  0  0  0  0  0  0  0  0  0  0
    2.9253   -6.3027    0.0000 N   0  0  0  0  0  0  0  0  0  0  0  0
    2.3852   -6.9263    0.0000 C   0  0  0  0  0  0  0  0  0  0  0  0
    1.5751   -6.7704    0.0000 C   0  0  0  0  0  0  0  0  0  0  0  0
    1.0350   -7.3940    0.0000 C   0  0  0  0  0  0  0  0  0  0  0  0
    1.3050   -8.1736    0.0000 C   0  0  0  0  0  0  0  0  0  0  0  0
    2.1152   -8.3295    0.0000 H   0  0  0  0  0  0  0  0  0  0  0  0
    0.7649   -8.7972    0.0000 C   0  0  0  0  0  0  0  0  0  0  0  0
    1.0350   -9.5768    0.0000 H   0  0  0  0  0  0  0  0  0  0  0  0
   -0.0452   -8.6413    0.0000 C   0  0  0  0  0  0  0  0  0  0  0  0
   -0.5853   -9.2650    0.0000 H   0  0  0  0  0  0  0  0  0  0  0  0
   -0.3152   -7.8618    0.0000 C   0  0  0  0  0  0  0  0  0  0  0  0
   -1.1254   -7.7058    0.0000 F   0  0  0  0  0  0  0  0  0  0  0  0
    0.2248   -7.2381    0.0000 C   0  0  0  0  0  0  0  0  0  0  0  0
   -0.0452   -6.4586    0.0000 H   0  0  0  0  0  0  0  0  0  0  0  0
    1.6836   -5.9526    0.0000 H   0  0  0  0  0  0  0  0  0  0  0  0
    0.9839   -6.1949    0.0000 H   0  0  0  0  0  0  0  0  0  0  0  0
    2.2767   -7.7441    0.0000 H   0  0  0  0  0  0  0  0  0  0  0  0
    2.9764   -7.5017    0.0000 H   0  0  0  0  0  0  0  0  0  0  0  0
    2.6552   -5.5231    0.0000 H   0  0  0  0  0  0  0  0  0  0  0  0
    4.2755   -5.8349    0.0000 C   0  0  0  0  0  0  0  0  0  0  0  0
    4.0055   -5.0554    0.0000 C   0  0  0  0  0  0  0  0  0  0  0  0
    3.1953   -4.8995    0.0000 C   0  0  0  0  0  0  0  0  0  0  0  0
    2.3852   -4.7436    0.0000 H   0  0  0  0  0  0  0  0  0  0  0  0
    2.9253   -4.1199    0.0000 C   0  0  0  0  0  0  0  0  0  0  0  0
    2.3016   -3.5798    0.0000 H   0  0  0  0  0  0  0  0  0  0  0  0
    3.4654   -3.4963    0.0000 C   0  0  0  0  0  0  0  0  0  0  0  0
    3.1953   -2.7167    0.0000 H   0  0  0  0  0  0  0  0  0  0  0  0
    4.2755   -3.6522    0.0000 N   0  0  0  0  0  0  0  0  0  0  0  0
    4.5456   -4.4317    0.0000 C   0  0  0  0  0  0  0  0  0  0  0  0
    4.8325   -5.2052    0.0000 H   0  0  0  0  0  0  0  0  0  0  0  0
    5.0856   -5.9908    0.0000 N   0  0  0  0  0  0  0  0  0  0  0  0
    5.3557   -6.7704    0.0000 C   0  0  0  0  0  0  0  0  0  0  0  0
    4.8156   -7.3940    0.0000 O   0  0  0  0  0  0  0  0  0  0  0  0
    6.1658   -6.9263    0.0000 C   0  0  0  0  0  0  0  0  0  0  0  0
    6.5159   -7.6734    0.0000 C   0  0  0  0  0  0  0  0  0  0  0  0
    6.1173   -8.3957    0.0000 H   0  0  0  0  0  0  0  0  0  0  0  0
    7.3345   -7.5713    0.0000 N   0  0  0  0  0  0  0  0  0  0  0  0
    7.4904   -6.7612    0.0000 C   0  0  0  0  0  0  0  0  0  0  0  0
    8.2375   -6.4111    0.0000 H   0  0  0  0  0  0  0  0  0  0  0  0
    6.7681   -6.3625    0.0000 N   0  0  0  0  0  0  0  0  0  0  0  0
    6.6661   -5.5439    0.0000 H   0  0  0  0  0  0  0  0  0  0  0  0
    5.6257   -5.3672    0.0000 C   0  0  0  0  0  0  0  0  0  0  0  0
    5.4387   -4.5637    0.0000 C   0  0  0  0  0  0  0  0  0  0  0  0
    5.2763   -3.7548    0.0000 H   0  0  0  0  0  0  0  0  0  0  0  0
    6.1987   -4.8846    0.0000 H   0  0  0  0  0  0  0  0  0  0  0  0
    6.1450   -4.1375    0.0000 C   0  0  0  0  0  0  0  0  0  0  0  0
    6.8144   -3.6553    0.0000 H   0  0  0  0  0  0  0  0  0  0  0  0
    6.2944   -3.3261    0.0000 H   0  0  0  0  0  0  0  0  0  0  0  0
    6.7687   -4.6776    0.0000 N   0  0  0  0  0  0  0  0  0  0  0  0
    7.5722   -4.4905    0.0000 C   0  0  0  0  0  0  0  0  0  0  0  0
    7.8119   -3.7011    0.0000 C   0  0  0  0  0  0  0  0  0  0  0  0
    7.2481   -3.0988    0.0000 H   0  0  0  0  0  0  0  0  0  0  0  0
    8.6154   -3.5140    0.0000 C   0  0  0  0  0  0  0  0  0  0  0  0
    8.8552   -2.7246    0.0000 H   0  0  0  0  0  0  0  0  0  0  0  0
    9.1792   -4.1163    0.0000 C   0  0  0  0  0  0  0  0  0  0  0  0
    9.9827   -3.9292    0.0000 H   0  0  0  0  0  0  0  0  0  0  0  0
    8.9395   -4.9057    0.0000 C   0  0  0  0  0  0  0  0  0  0  0  0
    9.5032   -5.5080    0.0000 H   0  0  0  0  0  0  0  0  0  0  0  0
    8.1359   -5.0928    0.0000 C   0  0  0  0  0  0  0  0  0  0  0  0
    7.8962   -5.8822    0.0000 H   0  0  0  0  0  0  0  0  0  0  0  0
    6.4477   -5.4376    0.0000 C   0  0  0  0  0  0  0  0  0  0  0  0
    6.6449   -6.2387    0.0000 H   0  0  0  0  0  0  0  0  0  0  0  0
    7.2201   -5.1476    0.0000 H   0  0  0  0  0  0  0  0  0  0  0  0
    5.9362   -6.1315    0.0000 H   0  0  0  0  0  0  0  0  0  0  0  0
    3.4654   -5.6790    0.0000 H   0  0  0  0  0  0  0  0  0  0  0  0
  1  2  2  0  0  0  0
  2  3  1  0  0  0  0
  3  4  1  0  0  0  0
  4  5  1  0  0  0  0
  5  6  1  0  0  0  0
  6  7  2  0  0  0  0
  7  8  1  0  0  0  0
  7  9  1  0  0  0  0
  9 10  1  0  0  0  0
  9 11  2  0  0  0  0
 11 12  1  0  0  0  0
 11 13  1  0  0  0  0
 13 14  1  0  0  0  0
 13 15  2  0  0  0  0
  6 15  1  0  0  0  0
 15 16  1  0  0  0  0
  5 17  1  0  0  0  0
  5 18  1  0  0  0  0
  4 19  1  0  0  0  0
  4 20  1  0  0  0  0
  3 21  1  0  0  0  0
  2 22  1  0  0  0  0
 22 23  1  0  0  0  0
 23 24  2  0  0  0  0
 24 25  1  0  0  0  0
 24 26  1  0  0  0  0
 26 27  1  0  0  0  0
 26 28  2  0  0  0  0
 28 29  1  0  0  0  0
 28 30  1  0  0  0  0
 30 31  2  0  0  0  0
 23 31  1  0  0  0  0
 31 32  1  0  0  0  0
 22 33  1  0  0  0  0
 33 34  1  0  0  0  0
 34 35  2  0  0  0  0
 34 36  1  0  0  0  0
 36 37  2  0  0  0  0
 37 38  1  0  0  0  0
 37 39  1  0  0  0  0
 39 40  2  0  0  0  0
 40 41  1  0  0  0  0
 40 42  1  0  0  0  0
 36 42  1  0  0  0  0
 42 43  1  0  0  0  0
 33 44  1  0  0  0  0
 44 45  1  0  0  0  0
 45 46  1  0  0  0  0
 45 47  1  0  0  0  0
 45 48  1  0  0  0  0
 48 49  1  0  0  0  0
 48 50  1  0  0  0  0
 48 51  1  0  0  0  0
 51 52  1  0  0  0  0
 52 53  2  0  0  0  0
 53 54  1  0  0  0  0
 53 55  1  0  0  0  0
 55 56  1  0  0  0  0
 55 57  2  0  0  0  0
 57 58  1  0  0  0  0
 57 59  1  0  0  0  0
 59 60  1  0  0  0  0
 59 61  2  0  0  0  0
 52 61  1  0  0  0  0
 61 62  1  0  0  0  0
 51 63  1  0  0  0  0
 44 63  1  0  0  0  0
 63 64  1  0  0  0  0
 63 65  1  0  0  0  0
 44 66  1  0  0  0  0
 22 67  1  0  0  0  0
M  END
> <Potency>
99.0

> <pIC50>
4.00436480540245

> <Outcome>
Inactive

> <is_active>
0

$$$$

  Mrv1921 08232120312D          

 67 71  0  0  0  0            999 V2000
    5.2883   -3.6573    0.0000 O   0  0  0  0  0  0  0  0  0  0  0  0
    5.0182   -4.4368    0.0000 C   0  0  0  0  0  0  0  0  0  0  0  0
    4.2081   -4.5927    0.0000 N   0  0  0  0  0  0  0  0  0  0  0  0
    3.6680   -3.9691    0.0000 C   0  0  0  0  0  0  0  0  0  0  0  0
    2.8579   -4.1250    0.0000 C   0  0  0  0  0  0  0  0  0  0  0  0
    2.3178   -3.5014    0.0000 C   0  0  0  0  0  0  0  0  0  0  0  0
    1.5077   -3.6573    0.0000 C   0  0  0  0  0  0  0  0  0  0  0  0
    1.2376   -4.4368    0.0000 H   0  0  0  0  0  0  0  0  0  0  0  0
    0.9676   -3.0336    0.0000 C   0  0  0  0  0  0  0  0  0  0  0  0
    0.1574   -3.1895    0.0000 H   0  0  0  0  0  0  0  0  0  0  0  0
    1.2376   -2.2541    0.0000 C   0  0  0  0  0  0  0  0  0  0  0  0
    0.6975   -1.6304    0.0000 H   0  0  0  0  0  0  0  0  0  0  0  0
    2.0477   -2.0982    0.0000 C   0  0  0  0  0  0  0  0  0  0  0  0
    2.3178   -1.3186    0.0000 F   0  0  0  0  0  0  0  0  0  0  0  0
    2.5878   -2.7218    0.0000 C   0  0  0  0  0  0  0  0  0  0  0  0
    3.3980   -2.5659    0.0000 H   0  0  0  0  0  0  0  0  0  0  0  0
    2.2667   -4.7004    0.0000 H   0  0  0  0  0  0  0  0  0  0  0  0
    2.9664   -4.9428    0.0000 H   0  0  0  0  0  0  0  0  0  0  0  0
    4.2592   -3.3937    0.0000 H   0  0  0  0  0  0  0  0  0  0  0  0
    3.5595   -3.1513    0.0000 H   0  0  0  0  0  0  0  0  0  0  0  0
    3.9381   -5.3723    0.0000 H   0  0  0  0  0  0  0  0  0  0  0  0
    5.5583   -5.0605    0.0000 C   0  0  0  0  0  0  0  0  0  0  0  0
    5.2883   -5.8400    0.0000 C   0  0  0  0  0  0  0  0  0  0  0  0
    5.8284   -6.4637    0.0000 C   0  0  0  0  0  0  0  0  0  0  0  0
    6.0984   -5.6841    0.0000 H   0  0  0  0  0  0  0  0  0  0  0  0
    5.5583   -7.2432    0.0000 C   0  0  0  0  0  0  0  0  0  0  0  0
    6.0984   -7.8668    0.0000 H   0  0  0  0  0  0  0  0  0  0  0  0
    4.7482   -7.3991    0.0000 C   0  0  0  0  0  0  0  0  0  0  0  0
    4.4782   -8.1787    0.0000 H   0  0  0  0  0  0  0  0  0  0  0  0
    4.2081   -6.7755    0.0000 N   0  0  0  0  0  0  0  0  0  0  0  0
    4.4782   -5.9959    0.0000 C   0  0  0  0  0  0  0  0  0  0  0  0
    3.6680   -6.1518    0.0000 H   0  0  0  0  0  0  0  0  0  0  0  0
    6.3685   -4.9046    0.0000 N   0  0  0  0  0  0  0  0  0  0  0  0
    6.6385   -4.1250    0.0000 C   0  0  0  0  0  0  0  0  0  0  0  0
    6.0984   -3.5014    0.0000 O   0  0  0  0  0  0  0  0  0  0  0  0
    7.4486   -3.9691    0.0000 C   0  0  0  0  0  0  0  0  0  0  0  0
    7.7987   -3.2220    0.0000 C   0  0  0  0  0  0  0  0  0  0  0  0
    7.4001   -2.4997    0.0000 H   0  0  0  0  0  0  0  0  0  0  0  0
    8.6174   -3.3241    0.0000 N   0  0  0  0  0  0  0  0  0  0  0  0
    8.7733   -4.1342    0.0000 C   0  0  0  0  0  0  0  0  0  0  0  0
    9.5203   -4.4843    0.0000 H   0  0  0  0  0  0  0  0  0  0  0  0
    8.0510   -4.5329    0.0000 N   0  0  0  0  0  0  0  0  0  0  0  0
    8.6703   -5.0779    0.0000 H   0  0  0  0  0  0  0  0  0  0  0  0
    6.9086   -5.5282    0.0000 C   0  0  0  0  0  0  0  0  0  0  0  0
    7.7187   -5.3723    0.0000 C   0  0  0  0  0  0  0  0  0  0  0  0
    7.1923   -4.7371    0.0000 H   0  0  0  0  0  0  0  0  0  0  0  0
    8.2588   -5.9959    0.0000 C   0  0  0  0  0  0  0  0  0  0  0  0
    9.0689   -5.8400    0.0000 H   0  0  0  0  0  0  0  0  0  0  0  0
    7.9887   -6.7755    0.0000 C   0  0  0  0  0  0  0  0  0  0  0  0
    8.5288   -7.3991    0.0000 O   0  0  0  0  0  0  0  0  0  0  0  0
    8.2588   -8.1787    0.0000 C   0  0  0  0  0  0  0  0  0  0  0  0
    8.7307   -8.8553    0.0000 C   0  0  0  0  0  0  0  0  0  0  0  0
    9.4515   -9.2567    0.0000 H   0  0  0  0  0  0  0  0  0  0  0  0
    9.4665   -8.4822    0.0000 H   0  0  0  0  0  0  0  0  0  0  0  0
    8.2330   -9.5133    0.0000 C   0  0  0  0  0  0  0  0  0  0  0  0
    8.0741  -10.3228    0.0000 H   0  0  0  0  0  0  0  0  0  0  0  0
    8.8153  -10.0977    0.0000 H   0  0  0  0  0  0  0  0  0  0  0  0
    7.4534   -9.2433    0.0000 O   0  0  0  0  0  0  0  0  0  0  0  0
    7.4694   -8.4184    0.0000 C   0  0  0  0  0  0  0  0  0  0  0  0
    6.7503   -8.0140    0.0000 H   0  0  0  0  0  0  0  0  0  0  0  0
    6.6677   -8.6130    0.0000 H   0  0  0  0  0  0  0  0  0  0  0  0
    7.6868   -7.5841    0.0000 H   0  0  0  0  0  0  0  0  0  0  0  0
    7.1786   -6.9314    0.0000 C   0  0  0  0  0  0  0  0  0  0  0  0
    6.5411   -7.4550    0.0000 H   0  0  0  0  0  0  0  0  0  0  0  0
    6.6385   -6.3077    0.0000 C   0  0  0  0  0  0  0  0  0  0  0  0
    7.4486   -6.1518    0.0000 H   0  0  0  0  0  0  0  0  0  0  0  0
    4.7482   -5.2164    0.0000 H   0  0  0  0  0  0  0  0  0  0  0  0
  1  2  2  0  0  0  0
  2  3  1  0  0  0  0
  3  4  1  0  0  0  0
  4  5  1  0  0  0  0
  5  6  1  0  0  0  0
  6  7  2  0  0  0  0
  7  8  1  0  0  0  0
  7  9  1  0  0  0  0
  9 10  1  0  0  0  0
  9 11  2  0  0  0  0
 11 12  1  0  0  0  0
 11 13  1  0  0  0  0
 13 14  1  0  0  0  0
 13 15  2  0  0  0  0
  6 15  1  0  0  0  0
 15 16  1  0  0  0  0
  5 17  1  0  0  0  0
  5 18  1  0  0  0  0
  4 19  1  0  0  0  0
  4 20  1  0  0  0  0
  3 21  1  0  0  0  0
  2 22  1  0  0  0  0
 22 23  1  0  0  0  0
 23 24  2  0  0  0  0
 24 25  1  0  0  0  0
 24 26  1  0  0  0  0
 26 27  1  0  0  0  0
 26 28  2  0  0  0  0
 28 29  1  0  0  0  0
 28 30  1  0  0  0  0
 30 31  2  0  0  0  0
 23 31  1  0  0  0  0
 31 32  1  0  0  0  0
 22 33  1  0  0  0  0
 33 34  1  0  0  0  0
 34 35  2  0  0  0  0
 34 36  1  0  0  0  0
 36 37  2  0  0  0  0
 37 38  1  0  0  0  0
 37 39  1  0  0  0  0
 39 40  2  0  0  0  0
 40 41  1  0  0  0  0
 40 42  1  0  0  0  0
 36 42  1  0  0  0  0
 42 43  1  0  0  0  0
 33 44  1  0  0  0  0
 44 45  2  0  0  0  0
 45 46  1  0  0  0  0
 45 47  1  0  0  0  0
 47 48  1  0  0  0  0
 47 49  2  0  0  0  0
 49 50  1  0  0  0  0
 50 51  1  0  0  0  0
 51 52  1  0  0  0  0
 52 53  1  0  0  0  0
 52 54  1  0  0  0  0
 52 55  1  0  0  0  0
 55 56  1  0  0  0  0
 55 57  1  0  0  0  0
 55 58  1  0  0  0  0
 58 59  1  0  0  0  0
 51 59  1  0  0  0  0
 59 60  1  0  0  0  0
 59 61  1  0  0  0  0
 51 62  1  0  0  0  0
 49 63  1  0  0  0  0
 63 64  1  0  0  0  0
 63 65  2  0  0  0  0
 44 65  1  0  0  0  0
 65 66  1  0  0  0  0
 22 67  1  0  0  0  0
M  END
> <Potency>
25.8154409880476

> <pIC50>
4.58812045178895

> <Outcome>
Inactive

> <is_active>
0

$$$$

  Mrv1921 08232120312D          

 61 64  0  0  0  0            999 V2000
    0.4468   -0.2775    0.0000 C   0  0  0  0  0  0  0  0  0  0  0  0
   -0.0509   -0.9354    0.0000 C   0  0  0  0  0  0  0  0  0  0  0  0
   -0.8696   -0.8334    0.0000 C   0  0  0  0  0  0  0  0  0  0  0  0
   -1.3673   -1.4913    0.0000 C   0  0  0  0  0  0  0  0  0  0  0  0
   -0.5960   -1.7842    0.0000 H   0  0  0  0  0  0  0  0  0  0  0  0
   -2.1859   -1.3893    0.0000 C   0  0  0  0  0  0  0  0  0  0  0  0
   -2.6837   -2.0472    0.0000 H   0  0  0  0  0  0  0  0  0  0  0  0
   -2.5069   -0.6292    0.0000 C   0  0  0  0  0  0  0  0  0  0  0  0
   -3.3255   -0.5272    0.0000 H   0  0  0  0  0  0  0  0  0  0  0  0
   -2.0092    0.0287    0.0000 C   0  0  0  0  0  0  0  0  0  0  0  0
   -2.3301    0.7887    0.0000 H   0  0  0  0  0  0  0  0  0  0  0  0
   -1.1905   -0.0734    0.0000 C   0  0  0  0  0  0  0  0  0  0  0  0
   -1.2282    0.7508    0.0000 H   0  0  0  0  0  0  0  0  0  0  0  0
    0.2700   -1.6954    0.0000 N   0  0  0  0  0  0  0  0  0  0  0  0
    0.0000   -2.4750    0.0000 C   0  0  0  0  0  0  0  0  0  0  0  0
    0.5401   -3.0986    0.0000 O   0  0  0  0  0  0  0  0  0  0  0  0
   -0.8101   -2.6309    0.0000 C   0  0  0  0  0  0  0  0  0  0  0  0
   -1.1602   -3.3780    0.0000 C   0  0  0  0  0  0  0  0  0  0  0  0
   -0.7616   -4.1003    0.0000 H   0  0  0  0  0  0  0  0  0  0  0  0
   -1.9788   -3.2759    0.0000 N   0  0  0  0  0  0  0  0  0  0  0  0
   -2.1348   -2.4658    0.0000 C   0  0  0  0  0  0  0  0  0  0  0  0
   -2.8360   -2.9003    0.0000 H   0  0  0  0  0  0  0  0  0  0  0  0
   -1.4125   -2.0671    0.0000 N   0  0  0  0  0  0  0  0  0  0  0  0
   -2.1060   -1.6203    0.0000 H   0  0  0  0  0  0  0  0  0  0  0  0
    1.0802   -1.5395    0.0000 C   0  0  0  0  0  0  0  0  0  0  0  0
    1.6203   -2.1632    0.0000 C   0  0  0  0  0  0  0  0  0  0  0  0
    1.3502   -2.9427    0.0000 O   0  0  0  0  0  0  0  0  0  0  0  0
    2.4304   -2.0073    0.0000 N   0  0  0  0  0  0  0  0  0  0  0  0
    2.9705   -2.6309    0.0000 C   0  0  0  0  0  0  0  0  0  0  0  0
    3.7806   -2.4750    0.0000 C   0  0  0  0  0  0  0  0  0  0  0  0
    4.3207   -3.0986    0.0000 C   0  0  0  0  0  0  0  0  0  0  0  0
    5.1308   -2.9427    0.0000 C   0  0  0  0  0  0  0  0  0  0  0  0
    5.4009   -2.1632    0.0000 H   0  0  0  0  0  0  0  0  0  0  0  0
    5.6709   -3.5664    0.0000 C   0  0  0  0  0  0  0  0  0  0  0  0
    6.4811   -3.4105    0.0000 H   0  0  0  0  0  0  0  0  0  0  0  0
    5.4009   -4.3459    0.0000 C   0  0  0  0  0  0  0  0  0  0  0  0
    5.9410   -4.9696    0.0000 H   0  0  0  0  0  0  0  0  0  0  0  0
    4.5908   -4.5018    0.0000 C   0  0  0  0  0  0  0  0  0  0  0  0
    4.3207   -5.2814    0.0000 F   0  0  0  0  0  0  0  0  0  0  0  0
    4.0507   -3.8782    0.0000 C   0  0  0  0  0  0  0  0  0  0  0  0
    3.2405   -4.0341    0.0000 H   0  0  0  0  0  0  0  0  0  0  0  0
    4.3718   -1.8996    0.0000 H   0  0  0  0  0  0  0  0  0  0  0  0
    3.6721   -1.6572    0.0000 H   0  0  0  0  0  0  0  0  0  0  0  0
    2.3793   -3.2063    0.0000 H   0  0  0  0  0  0  0  0  0  0  0  0
    3.0790   -3.4487    0.0000 H   0  0  0  0  0  0  0  0  0  0  0  0
    2.7004   -1.2277    0.0000 H   0  0  0  0  0  0  0  0  0  0  0  0
    1.3502   -0.7600    0.0000 C   0  0  0  0  0  0  0  0  0  0  0  0
    0.8101   -0.1363    0.0000 C   0  0  0  0  0  0  0  0  0  0  0  0
    1.6203    0.0196    0.0000 H   0  0  0  0  0  0  0  0  0  0  0  0
    1.0802    0.6432    0.0000 C   0  0  0  0  0  0  0  0  0  0  0  0
    0.9436    1.4568    0.0000 H   0  0  0  0  0  0  0  0  0  0  0  0
    1.8903    0.7991    0.0000 C   0  0  0  0  0  0  0  0  0  0  0  0
    2.1604    1.5787    0.0000 H   0  0  0  0  0  0  0  0  0  0  0  0
    2.4304    0.1755    0.0000 N   0  0  0  0  0  0  0  0  0  0  0  0
    2.1604   -0.6041    0.0000 C   0  0  0  0  0  0  0  0  0  0  0  0
    1.8903   -1.3836    0.0000 H   0  0  0  0  0  0  0  0  0  0  0  0
    0.8101   -2.3191    0.0000 H   0  0  0  0  0  0  0  0  0  0  0  0
   -0.3718   -0.1754    0.0000 H   0  0  0  0  0  0  0  0  0  0  0  0
    0.2536    0.5246    0.0000 H   0  0  0  0  0  0  0  0  0  0  0  0
   -0.2718    0.1278    0.0000 H   0  0  0  0  0  0  0  0  0  0  0  0
    0.9440   -0.9358    0.0000 H   0  0  0  0  0  0  0  0  0  0  0  0
  1  2  1  0  0  0  0
  2  3  1  0  0  0  0
  3  4  2  0  0  0  0
  4  5  1  0  0  0  0
  4  6  1  0  0  0  0
  6  7  1  0  0  0  0
  6  8  2  0  0  0  0
  8  9  1  0  0  0  0
  8 10  1  0  0  0  0
 10 11  1  0  0  0  0
 10 12  2  0  0  0  0
  3 12  1  0  0  0  0
 12 13  1  0  0  0  0
  2 14  1  0  0  0  0
 14 15  1  0  0  0  0
 15 16  2  0  0  0  0
 15 17  1  0  0  0  0
 17 18  2  0  0  0  0
 18 19  1  0  0  0  0
 18 20  1  0  0  0  0
 20 21  2  0  0  0  0
 21 22  1  0  0  0  0
 21 23  1  0  0  0  0
 17 23  1  0  0  0  0
 23 24  1  0  0  0  0
 14 25  1  0  0  0  0
 25 26  1  0  0  0  0
 26 27  2  0  0  0  0
 26 28  1  0  0  0  0
 28 29  1  0  0  0  0
 29 30  1  0  0  0  0
 30 31  1  0  0  0  0
 31 32  2  0  0  0  0
 32 33  1  0  0  0  0
 32 34  1  0  0  0  0
 34 35  1  0  0  0  0
 34 36  2  0  0  0  0
 36 37  1  0  0  0  0
 36 38  1  0  0  0  0
 38 39  1  0  0  0  0
 38 40  2  0  0  0  0
 31 40  1  0  0  0  0
 40 41  1  0  0  0  0
 30 42  1  0  0  0  0
 30 43  1  0  0  0  0
 29 44  1  0  0  0  0
 29 45  1  0  0  0  0
 28 46  1  0  0  0  0
 25 47  1  0  0  0  0
 47 48  2  0  0  0  0
 48 49  1  0  0  0  0
 48 50  1  0  0  0  0
 50 51  1  0  0  0  0
 50 52  2  0  0  0  0
 52 53  1  0  0  0  0
 52 54  1  0  0  0  0
 54 55  2  0  0  0  0
 47 55  1  0  0  0  0
 55 56  1  0  0  0  0
 25 57  1  0  0  0  0
  2 58  1  0  0  0  0
  1 59  1  0  0  0  0
  1 60  1  0  0  0  0
  1 61  1  0  0  0  0
M  END
> <Potency>
99.0

> <pIC50>
4.00436480540245

> <Outcome>
Inactive

> <is_active>
0

$$$$

  Mrv1921 08232120312D          

 64 67  0  0  0  0            999 V2000
   -0.6928    0.5846    0.0000 C   0  0  0  0  0  0  0  0  0  0  0  0
   -1.1905   -0.0734    0.0000 C   0  0  0  0  0  0  0  0  0  0  0  0
   -2.0092    0.0287    0.0000 C   0  0  0  0  0  0  0  0  0  0  0  0
   -2.3301    0.7887    0.0000 H   0  0  0  0  0  0  0  0  0  0  0  0
   -2.5069   -0.6292    0.0000 C   0  0  0  0  0  0  0  0  0  0  0  0
   -3.3255   -0.5272    0.0000 H   0  0  0  0  0  0  0  0  0  0  0  0
   -2.1859   -1.3893    0.0000 C   0  0  0  0  0  0  0  0  0  0  0  0
   -2.6837   -2.0472    0.0000 H   0  0  0  0  0  0  0  0  0  0  0  0
   -1.3673   -1.4913    0.0000 C   0  0  0  0  0  0  0  0  0  0  0  0
   -0.5960   -1.7842    0.0000 H   0  0  0  0  0  0  0  0  0  0  0  0
   -0.8696   -0.8334    0.0000 C   0  0  0  0  0  0  0  0  0  0  0  0
   -0.0509   -0.9354    0.0000 C   0  0  0  0  0  0  0  0  0  0  0  0
    0.4468   -0.2775    0.0000 C   0  0  0  0  0  0  0  0  0  0  0  0
    0.6231   -1.0834    0.0000 H   0  0  0  0  0  0  0  0  0  0  0  0
    1.1738   -0.6675    0.0000 H   0  0  0  0  0  0  0  0  0  0  0  0
    0.5608    0.5396    0.0000 H   0  0  0  0  0  0  0  0  0  0  0  0
    0.2700   -1.6954    0.0000 N   0  0  0  0  0  0  0  0  0  0  0  0
    0.0000   -2.4750    0.0000 C   0  0  0  0  0  0  0  0  0  0  0  0
    0.5401   -3.0986    0.0000 O   0  0  0  0  0  0  0  0  0  0  0  0
   -0.8101   -2.6309    0.0000 C   0  0  0  0  0  0  0  0  0  0  0  0
   -1.1602   -3.3780    0.0000 C   0  0  0  0  0  0  0  0  0  0  0  0
   -0.7616   -4.1003    0.0000 H   0  0  0  0  0  0  0  0  0  0  0  0
   -1.9788   -3.2759    0.0000 N   0  0  0  0  0  0  0  0  0  0  0  0
   -2.1348   -2.4658    0.0000 C   0  0  0  0  0  0  0  0  0  0  0  0
   -2.8360   -2.9003    0.0000 H   0  0  0  0  0  0  0  0  0  0  0  0
   -1.4125   -2.0671    0.0000 N   0  0  0  0  0  0  0  0  0  0  0  0
   -2.1060   -1.6203    0.0000 H   0  0  0  0  0  0  0  0  0  0  0  0
    1.0802   -1.5395    0.0000 C   0  0  0  0  0  0  0  0  0  0  0  0
    1.6203   -2.1632    0.0000 C   0  0  0  0  0  0  0  0  0  0  0  0
    1.3502   -2.9427    0.0000 O   0  0  0  0  0  0  0  0  0  0  0  0
    2.4304   -2.0073    0.0000 N   0  0  0  0  0  0  0  0  0  0  0  0
    2.9705   -2.6309    0.0000 C   0  0  0  0  0  0  0  0  0  0  0  0
    3.7806   -2.4750    0.0000 C   0  0  0  0  0  0  0  0  0  0  0  0
    4.3207   -3.0986    0.0000 C   0  0  0  0  0  0  0  0  0  0  0  0
    5.1308   -2.9427    0.0000 C   0  0  0  0  0  0  0  0  0  0  0  0
    5.4009   -2.1632    0.0000 H   0  0  0  0  0  0  0  0  0  0  0  0
    5.6709   -3.5664    0.0000 C   0  0  0  0  0  0  0  0  0  0  0  0
    6.4811   -3.4105    0.0000 H   0  0  0  0  0  0  0  0  0  0  0  0
    5.4009   -4.3459    0.0000 C   0  0  0  0  0  0  0  0  0  0  0  0
    5.9410   -4.9696    0.0000 H   0  0  0  0  0  0  0  0  0  0  0  0
    4.5908   -4.5018    0.0000 C   0  0  0  0  0  0  0  0  0  0  0  0
    4.3207   -5.2814    0.0000 F   0  0  0  0  0  0  0  0  0  0  0  0
    4.0507   -3.8782    0.0000 C   0  0  0  0  0  0  0  0  0  0  0  0
    3.2405   -4.0341    0.0000 H   0  0  0  0  0  0  0  0  0  0  0  0
    4.3718   -1.8996    0.0000 H   0  0  0  0  0  0  0  0  0  0  0  0
    3.6721   -1.6572    0.0000 H   0  0  0  0  0  0  0  0  0  0  0  0
    2.3793   -3.2063    0.0000 H   0  0  0  0  0  0  0  0  0  0  0  0
    3.0790   -3.4487    0.0000 H   0  0  0  0  0  0  0  0  0  0  0  0
    2.7004   -1.2277    0.0000 H   0  0  0  0  0  0  0  0  0  0  0  0
    1.3502   -0.7600    0.0000 C   0  0  0  0  0  0  0  0  0  0  0  0
    0.8101   -0.1363    0.0000 C   0  0  0  0  0  0  0  0  0  0  0  0
    1.6203    0.0196    0.0000 H   0  0  0  0  0  0  0  0  0  0  0  0
    1.0802    0.6432    0.0000 C   0  0  0  0  0  0  0  0  0  0  0  0
    0.9215    1.4528    0.0000 H   0  0  0  0  0  0  0  0  0  0  0  0
    1.8903    0.7991    0.0000 C   0  0  0  0  0  0  0  0  0  0  0  0
    2.1604    1.5787    0.0000 H   0  0  0  0  0  0  0  0  0  0  0  0
    2.4304    0.1755    0.0000 N   0  0  0  0  0  0  0  0  0  0  0  0
    2.1604   -0.6041    0.0000 C   0  0  0  0  0  0  0  0  0  0  0  0
    1.8903   -1.3836    0.0000 H   0  0  0  0  0  0  0  0  0  0  0  0
    0.8101   -2.3191    0.0000 H   0  0  0  0  0  0  0  0  0  0  0  0
   -0.3718   -0.1754    0.0000 H   0  0  0  0  0  0  0  0  0  0  0  0
   -0.0348    0.0869    0.0000 H   0  0  0  0  0  0  0  0  0  0  0  0
   -0.1951    1.2425    0.0000 H   0  0  0  0  0  0  0  0  0  0  0  0
   -1.3507    1.0823    0.0000 H   0  0  0  0  0  0  0  0  0  0  0  0
  1  2  1  0  0  0  0
  2  3  2  0  0  0  0
  3  4  1  0  0  0  0
  3  5  1  0  0  0  0
  5  6  1  0  0  0  0
  5  7  2  0  0  0  0
  7  8  1  0  0  0  0
  7  9  1  0  0  0  0
  9 10  1  0  0  0  0
  9 11  2  0  0  0  0
  2 11  1  0  0  0  0
 11 12  1  0  0  0  0
 12 13  1  0  0  0  0
 13 14  1  0  0  0  0
 13 15  1  0  0  0  0
 13 16  1  0  0  0  0
 12 17  1  0  0  0  0
 17 18  1  0  0  0  0
 18 19  2  0  0  0  0
 18 20  1  0  0  0  0
 20 21  2  0  0  0  0
 21 22  1  0  0  0  0
 21 23  1  0  0  0  0
 23 24  2  0  0  0  0
 24 25  1  0  0  0  0
 24 26  1  0  0  0  0
 20 26  1  0  0  0  0
 26 27  1  0  0  0  0
 17 28  1  0  0  0  0
 28 29  1  0  0  0  0
 29 30  2  0  0  0  0
 29 31  1  0  0  0  0
 31 32  1  0  0  0  0
 32 33  1  0  0  0  0
 33 34  1  0  0  0  0
 34 35  2  0  0  0  0
 35 36  1  0  0  0  0
 35 37  1  0  0  0  0
 37 38  1  0  0  0  0
 37 39  2  0  0  0  0
 39 40  1  0  0  0  0
 39 41  1  0  0  0  0
 41 42  1  0  0  0  0
 41 43  2  0  0  0  0
 34 43  1  0  0  0  0
 43 44  1  0  0  0  0
 33 45  1  0  0  0  0
 33 46  1  0  0  0  0
 32 47  1  0  0  0  0
 32 48  1  0  0  0  0
 31 49  1  0  0  0  0
 28 50  1  0  0  0  0
 50 51  2  0  0  0  0
 51 52  1  0  0  0  0
 51 53  1  0  0  0  0
 53 54  1  0  0  0  0
 53 55  2  0  0  0  0
 55 56  1  0  0  0  0
 55 57  1  0  0  0  0
 57 58  2  0  0  0  0
 50 58  1  0  0  0  0
 58 59  1  0  0  0  0
 28 60  1  0  0  0  0
 12 61  1  0  0  0  0
  1 62  1  0  0  0  0
  1 63  1  0  0  0  0
  1 64  1  0  0  0  0
M  END
> <Potency>
99.0

> <pIC50>
4.00436480540245

> <Outcome>
Inactive

> <is_active>
0

$$$$

  Mrv1921 08232120312D          

 68 72  0  0  0  0            999 V2000
    8.7764   -1.9471    0.0000 O   0  0  0  0  0  0  0  0  0  0  0  0
    8.5064   -1.1675    0.0000 C   0  0  0  0  0  0  0  0  0  0  0  0
    7.6962   -1.0116    0.0000 N   0  0  0  0  0  0  0  0  0  0  0  0
    7.1561   -1.6353    0.0000 C   0  0  0  0  0  0  0  0  0  0  0  0
    6.3460   -1.4793    0.0000 C   0  0  0  0  0  0  0  0  0  0  0  0
    5.8059   -2.1030    0.0000 C   0  0  0  0  0  0  0  0  0  0  0  0
    6.0760   -2.8825    0.0000 C   0  0  0  0  0  0  0  0  0  0  0  0
    6.8861   -3.0385    0.0000 H   0  0  0  0  0  0  0  0  0  0  0  0
    5.5359   -3.5062    0.0000 C   0  0  0  0  0  0  0  0  0  0  0  0
    5.8059   -4.2857    0.0000 H   0  0  0  0  0  0  0  0  0  0  0  0
    4.7257   -3.3503    0.0000 C   0  0  0  0  0  0  0  0  0  0  0  0
    4.1857   -3.9739    0.0000 H   0  0  0  0  0  0  0  0  0  0  0  0
    4.4557   -2.5707    0.0000 C   0  0  0  0  0  0  0  0  0  0  0  0
    3.6456   -2.4148    0.0000 F   0  0  0  0  0  0  0  0  0  0  0  0
    4.9958   -1.9471    0.0000 C   0  0  0  0  0  0  0  0  0  0  0  0
    4.7257   -1.1675    0.0000 H   0  0  0  0  0  0  0  0  0  0  0  0
    6.4545   -0.6615    0.0000 H   0  0  0  0  0  0  0  0  0  0  0  0
    5.7548   -0.9039    0.0000 H   0  0  0  0  0  0  0  0  0  0  0  0
    7.0476   -2.4531    0.0000 H   0  0  0  0  0  0  0  0  0  0  0  0
    7.7473   -2.2107    0.0000 H   0  0  0  0  0  0  0  0  0  0  0  0
    7.4262   -0.2321    0.0000 H   0  0  0  0  0  0  0  0  0  0  0  0
    9.0465   -0.5439    0.0000 C   0  0  0  0  0  0  0  0  0  0  0  0
    8.7764    0.2357    0.0000 C   0  0  0  0  0  0  0  0  0  0  0  0
    7.9663    0.3916    0.0000 C   0  0  0  0  0  0  0  0  0  0  0  0
    7.1561    0.5475    0.0000 H   0  0  0  0  0  0  0  0  0  0  0  0
    7.6962    1.1711    0.0000 C   0  0  0  0  0  0  0  0  0  0  0  0
    7.0726    1.7112    0.0000 H   0  0  0  0  0  0  0  0  0  0  0  0
    8.2363    1.7948    0.0000 C   0  0  0  0  0  0  0  0  0  0  0  0
    7.9663    2.5743    0.0000 H   0  0  0  0  0  0  0  0  0  0  0  0
    9.0465    1.6389    0.0000 N   0  0  0  0  0  0  0  0  0  0  0  0
    9.3165    0.8593    0.0000 C   0  0  0  0  0  0  0  0  0  0  0  0
    9.5865    0.0798    0.0000 H   0  0  0  0  0  0  0  0  0  0  0  0
    9.8566   -0.6998    0.0000 N   0  0  0  0  0  0  0  0  0  0  0  0
   10.1266   -1.4793    0.0000 C   0  0  0  0  0  0  0  0  0  0  0  0
    9.5865   -2.1030    0.0000 O   0  0  0  0  0  0  0  0  0  0  0  0
   10.9368   -1.6353    0.0000 C   0  0  0  0  0  0  0  0  0  0  0  0
   11.2868   -2.3823    0.0000 C   0  0  0  0  0  0  0  0  0  0  0  0
   10.8882   -3.1046    0.0000 H   0  0  0  0  0  0  0  0  0  0  0  0
   12.1055   -2.2802    0.0000 N   0  0  0  0  0  0  0  0  0  0  0  0
   12.2614   -1.4701    0.0000 C   0  0  0  0  0  0  0  0  0  0  0  0
   13.0084   -1.1201    0.0000 H   0  0  0  0  0  0  0  0  0  0  0  0
   11.5391   -1.0715    0.0000 N   0  0  0  0  0  0  0  0  0  0  0  0
   12.1584   -0.5264    0.0000 H   0  0  0  0  0  0  0  0  0  0  0  0
   10.3967   -0.0762    0.0000 C   0  0  0  0  0  0  0  0  0  0  0  0
   10.1266    0.7034    0.0000 C   0  0  0  0  0  0  0  0  0  0  0  0
    9.8566    1.4829    0.0000 H   0  0  0  0  0  0  0  0  0  0  0  0
   10.9368    0.5475    0.0000 H   0  0  0  0  0  0  0  0  0  0  0  0
   10.6667    1.3270    0.0000 C   0  0  0  0  0  0  0  0  0  0  0  0
   11.0903    2.0350    0.0000 H   0  0  0  0  0  0  0  0  0  0  0  0
   10.5361    2.1416    0.0000 H   0  0  0  0  0  0  0  0  0  0  0  0
   11.4769    1.1711    0.0000 C   0  0  0  0  0  0  0  0  0  0  0  0
   12.3017    1.1863    0.0000 H   0  0  0  0  0  0  0  0  0  0  0  0
   12.0884    1.7249    0.0000 H   0  0  0  0  0  0  0  0  0  0  0  0
   11.7469    0.3916    0.0000 C   0  0  0  0  0  0  0  0  0  0  0  0
   12.4300    0.8542    0.0000 C   0  0  0  0  0  0  0  0  0  0  0  0
   13.1610    1.2366    0.0000 H   0  0  0  0  0  0  0  0  0  0  0  0
   11.6420    1.0986    0.0000 H   0  0  0  0  0  0  0  0  0  0  0  0
   12.8926    0.1711    0.0000 C   0  0  0  0  0  0  0  0  0  0  0  0
   13.5162   -0.3690    0.0000 H   0  0  0  0  0  0  0  0  0  0  0  0
   13.6722    0.4411    0.0000 H   0  0  0  0  0  0  0  0  0  0  0  0
   12.2095   -0.2915    0.0000 C   0  0  0  0  0  0  0  0  0  0  0  0
   11.3994   -0.4477    0.0000 H   0  0  0  0  0  0  0  0  0  0  0  0
   12.8928   -0.7539    0.0000 H   0  0  0  0  0  0  0  0  0  0  0  0
   11.2068   -0.2321    0.0000 C   0  0  0  0  0  0  0  0  0  0  0  0
   12.0318   -0.2258    0.0000 H   0  0  0  0  0  0  0  0  0  0  0  0
   11.0685   -1.0454    0.0000 H   0  0  0  0  0  0  0  0  0  0  0  0
   10.6667   -0.8557    0.0000 H   0  0  0  0  0  0  0  0  0  0  0  0
    8.2363   -0.3880    0.0000 H   0  0  0  0  0  0  0  0  0  0  0  0
  1  2  2  0  0  0  0
  2  3  1  0  0  0  0
  3  4  1  0  0  0  0
  4  5  1  0  0  0  0
  5  6  1  0  0  0  0
  6  7  2  0  0  0  0
  7  8  1  0  0  0  0
  7  9  1  0  0  0  0
  9 10  1  0  0  0  0
  9 11  2  0  0  0  0
 11 12  1  0  0  0  0
 11 13  1  0  0  0  0
 13 14  1  0  0  0  0
 13 15  2  0  0  0  0
  6 15  1  0  0  0  0
 15 16  1  0  0  0  0
  5 17  1  0  0  0  0
  5 18  1  0  0  0  0
  4 19  1  0  0  0  0
  4 20  1  0  0  0  0
  3 21  1  0  0  0  0
  2 22  1  0  0  0  0
 22 23  1  0  0  0  0
 23 24  2  0  0  0  0
 24 25  1  0  0  0  0
 24 26  1  0  0  0  0
 26 27  1  0  0  0  0
 26 28  2  0  0  0  0
 28 29  1  0  0  0  0
 28 30  1  0  0  0  0
 30 31  2  0  0  0  0
 23 31  1  0  0  0  0
 31 32  1  0  0  0  0
 22 33  1  0  0  0  0
 33 34  1  0  0  0  0
 34 35  2  0  0  0  0
 34 36  1  0  0  0  0
 36 37  2  0  0  0  0
 37 38  1  0  0  0  0
 37 39  1  0  0  0  0
 39 40  2  0  0  0  0
 40 41  1  0  0  0  0
 40 42  1  0  0  0  0
 36 42  1  0  0  0  0
 42 43  1  0  0  0  0
 33 44  1  0  0  0  0
 44 45  1  0  0  0  0
 45 46  1  0  0  0  0
 45 47  1  0  0  0  0
 45 48  1  0  0  0  0
 48 49  1  0  0  0  0
 48 50  1  0  0  0  0
 48 51  1  0  0  0  0
 51 52  1  0  0  0  0
 51 53  1  0  0  0  0
 51 54  1  0  0  0  0
 54 55  1  0  0  0  0
 55 56  1  0  0  0  0
 55 57  1  0  0  0  0
 55 58  1  0  0  0  0
 58 59  1  0  0  0  0
 58 60  1  0  0  0  0
 58 61  1  0  0  0  0
 54 61  1  0  0  0  0
 61 62  1  0  0  0  0
 61 63  1  0  0  0  0
 54 64  1  0  0  0  0
 44 64  1  0  0  0  0
 64 65  1  0  0  0  0
 64 66  1  0  0  0  0
 44 67  1  0  0  0  0
 22 68  1  0  0  0  0
M  END
> <Potency>
99.0

> <pIC50>
4.00436480540245

> <Outcome>
Inactive

> <is_active>
0

$$$$

  Mrv1921 08232120312D          

 40 43  0  0  0  0            999 V2000
    2.1434   -2.8875    0.0000 O   0  0  0  0  0  0  0  0  0  0  0  0
    1.4289   -2.4750    0.0000 C   0  0  0  0  0  0  0  0  0  0  0  0
    0.7145   -2.8875    0.0000 N   0  0  0  0  0  0  0  0  0  0  0  0
    0.7145   -3.7125    0.0000 C   0  0  0  0  0  0  0  0  0  0  0  0
    1.4289   -4.1250    0.0000 C   0  0  0  0  0  0  0  0  0  0  0  0
    2.1434   -3.7125    0.0000 H   0  0  0  0  0  0  0  0  0  0  0  0
    1.4289   -4.9500    0.0000 N   0  3  0  0  0  0  0  0  0  0  0  0
    2.1434   -5.3625    0.0000 O   0  5  0  0  0  0  0  0  0  0  0  0
    0.7145   -5.3625    0.0000 C   0  0  0  0  0  0  0  0  0  0  0  0
    0.7145   -6.1875    0.0000 H   0  0  0  0  0  0  0  0  0  0  0  0
    0.0000   -4.9500    0.0000 C   0  0  0  0  0  0  0  0  0  0  0  0
   -0.7145   -5.3625    0.0000 C   0  0  0  0  0  0  0  0  0  0  0  0
   -1.4289   -4.9500    0.0000 C   0  0  0  0  0  0  0  0  0  0  0  0
   -1.4289   -4.1250    0.0000 C   0  0  0  0  0  0  0  0  0  0  0  0
   -0.7145   -3.7125    0.0000 C   0  0  0  0  0  0  0  0  0  0  0  0
   -0.7145   -2.8875    0.0000 H   0  0  0  0  0  0  0  0  0  0  0  0
    0.0000   -4.1250    0.0000 C   0  0  0  0  0  0  0  0  0  0  0  0
   -2.1434   -3.7125    0.0000 H   0  0  0  0  0  0  0  0  0  0  0  0
   -2.1434   -5.3625    0.0000 H   0  0  0  0  0  0  0  0  0  0  0  0
   -0.7145   -6.1875    0.0000 H   0  0  0  0  0  0  0  0  0  0  0  0
    0.0000   -2.4750    0.0000 H   0  0  0  0  0  0  0  0  0  0  0  0
    1.4289   -1.6500    0.0000 C   0  0  0  0  0  0  0  0  0  0  0  0
    0.7145   -1.2375    0.0000 C   0  0  0  0  0  0  0  0  0  0  0  0
   -0.1091   -1.2855    0.0000 H   0  0  0  0  0  0  0  0  0  0  0  0
    0.2611   -1.9268    0.0000 H   0  0  0  0  0  0  0  0  0  0  0  0
    0.7145   -0.4125    0.0000 C   0  0  0  0  0  0  0  0  0  0  0  0
    0.2611    0.2768    0.0000 H   0  0  0  0  0  0  0  0  0  0  0  0
   -0.1091   -0.3645    0.0000 H   0  0  0  0  0  0  0  0  0  0  0  0
    1.4289    0.0000    0.0000 O   0  0  0  0  0  0  0  0  0  0  0  0
    2.1434   -0.4125    0.0000 C   0  0  0  0  0  0  0  0  0  0  0  0
    2.8579    0.0000    0.0000 C   0  0  0  0  0  0  0  0  0  0  0  0
    3.5724   -0.4125    0.0000 C   0  0  0  0  0  0  0  0  0  0  0  0
    3.5724   -1.2375    0.0000 C   0  0  0  0  0  0  0  0  0  0  0  0
    4.2868   -1.6500    0.0000 Cl  0  0  0  0  0  0  0  0  0  0  0  0
    2.8579   -1.6500    0.0000 C   0  0  0  0  0  0  0  0  0  0  0  0
    3.2704   -2.3645    0.0000 H   0  0  0  0  0  0  0  0  0  0  0  0
    2.1434   -1.2375    0.0000 C   0  0  0  0  0  0  0  0  0  0  0  0
    4.2868   -0.0000    0.0000 H   0  0  0  0  0  0  0  0  0  0  0  0
    2.8579    0.8250    0.0000 H   0  0  0  0  0  0  0  0  0  0  0  0
    2.1434   -2.0625    0.0000 H   0  0  0  0  0  0  0  0  0  0  0  0
  1  2  2  0  0  0  0
  2  3  1  0  0  0  0
  3  4  1  0  0  0  0
  4  5  2  0  0  0  0
  5  6  1  0  0  0  0
  5  7  1  0  0  0  0
  7  8  1  0  0  0  0
  7  9  2  0  0  0  0
  9 10  1  0  0  0  0
  9 11  1  0  0  0  0
 11 12  2  0  0  0  0
 12 13  1  0  0  0  0
 13 14  2  0  0  0  0
 14 15  1  0  0  0  0
 15 16  1  0  0  0  0
 15 17  2  0  0  0  0
  4 17  1  0  0  0  0
 11 17  1  0  0  0  0
 14 18  1  0  0  0  0
 13 19  1  0  0  0  0
 12 20  1  0  0  0  0
  3 21  1  0  0  0  0
  2 22  1  0  0  0  0
 22 23  1  0  0  0  0
 23 24  1  0  0  0  0
 23 25  1  0  0  0  0
 23 26  1  0  0  0  0
 26 27  1  0  0  0  0
 26 28  1  0  0  0  0
 26 29  1  0  0  0  0
 29 30  1  0  0  0  0
 30 31  2  0  0  0  0
 31 32  1  0  0  0  0
 32 33  2  0  0  0  0
 33 34  1  0  0  0  0
 33 35  1  0  0  0  0
 35 36  1  0  0  0  0
 35 37  2  0  0  0  0
 22 37  1  0  0  0  0
 30 37  1  0  0  0  0
 32 38  1  0  0  0  0
 31 39  1  0  0  0  0
 22 40  1  0  0  0  0
M  CHG  2   7   1   8  -1
M  END
> <Potency>
25.6758159959137

> <pIC50>
4.590475745320119

> <Outcome>
Inactive

> <is_active>
0

$$$$

  Mrv1921 08232120312D          

 41 44  0  0  0  0            999 V2000
    2.8579   -2.4750    0.0000 O   0  0  0  0  0  0  0  0  0  0  0  0
    2.1434   -2.8875    0.0000 C   0  0  0  0  0  0  0  0  0  0  0  0
    2.1434   -3.7125    0.0000 C   0  0  0  0  0  0  0  0  0  0  0  0
    2.8579   -4.1250    0.0000 C   0  0  0  0  0  0  0  0  0  0  0  0
    3.5724   -3.7125    0.0000 C   0  0  0  0  0  0  0  0  0  0  0  0
    3.9849   -2.9980    0.0000 H   0  0  0  0  0  0  0  0  0  0  0  0
    4.2868   -4.1250    0.0000 C   0  0  0  0  0  0  0  0  0  0  0  0
    5.0013   -3.7125    0.0000 H   0  0  0  0  0  0  0  0  0  0  0  0
    4.2868   -4.9500    0.0000 C   0  0  0  0  0  0  0  0  0  0  0  0
    5.0013   -5.3625    0.0000 Cl  0  0  0  0  0  0  0  0  0  0  0  0
    3.5724   -5.3625    0.0000 C   0  0  0  0  0  0  0  0  0  0  0  0
    3.5724   -6.1875    0.0000 H   0  0  0  0  0  0  0  0  0  0  0  0
    2.8579   -4.9500    0.0000 C   0  0  0  0  0  0  0  0  0  0  0  0
    2.1434   -5.3625    0.0000 H   0  0  0  0  0  0  0  0  0  0  0  0
    2.8579   -3.3000    0.0000 H   0  0  0  0  0  0  0  0  0  0  0  0
    1.4289   -4.1250    0.0000 C   0  0  0  0  0  0  0  0  0  0  0  0
    1.0587   -4.8622    0.0000 H   0  0  0  0  0  0  0  0  0  0  0  0
    1.7992   -4.8622    0.0000 H   0  0  0  0  0  0  0  0  0  0  0  0
    0.7145   -3.7125    0.0000 C   0  0  0  0  0  0  0  0  0  0  0  0
   -0.1091   -3.7605    0.0000 H   0  0  0  0  0  0  0  0  0  0  0  0
    0.2611   -4.4018    0.0000 H   0  0  0  0  0  0  0  0  0  0  0  0
    0.7145   -2.8875    0.0000 C   0  0  0  0  0  0  0  0  0  0  0  0
    0.2611   -2.1982    0.0000 H   0  0  0  0  0  0  0  0  0  0  0  0
   -0.1091   -2.8395    0.0000 H   0  0  0  0  0  0  0  0  0  0  0  0
    1.4289   -2.4750    0.0000 N   0  0  0  0  0  0  0  0  0  0  0  0
    1.4289   -1.6500    0.0000 C   0  0  0  0  0  0  0  0  0  0  0  0
    0.7145   -1.2375    0.0000 C   0  0  0  0  0  0  0  0  0  0  0  0
    0.0000   -1.6500    0.0000 H   0  0  0  0  0  0  0  0  0  0  0  0
    0.7145   -0.4125    0.0000 N   0  0  0  0  0  0  0  0  0  0  0  0
    1.4289    0.0000    0.0000 C   0  0  0  0  0  0  0  0  0  0  0  0
    1.4289    0.8250    0.0000 H   0  0  0  0  0  0  0  0  0  0  0  0
    2.1434   -0.4125    0.0000 C   0  0  0  0  0  0  0  0  0  0  0  0
    2.8579    0.0000    0.0000 C   0  0  0  0  0  0  0  0  0  0  0  0
    3.5724   -0.4125    0.0000 C   0  0  0  0  0  0  0  0  0  0  0  0
    3.5724   -1.2375    0.0000 C   0  0  0  0  0  0  0  0  0  0  0  0
    2.8579   -1.6500    0.0000 C   0  0  0  0  0  0  0  0  0  0  0  0
    2.1434   -2.0625    0.0000 H   0  0  0  0  0  0  0  0  0  0  0  0
    2.1434   -1.2375    0.0000 C   0  0  0  0  0  0  0  0  0  0  0  0
    4.2868   -1.6500    0.0000 H   0  0  0  0  0  0  0  0  0  0  0  0
    4.2868   -0.0000    0.0000 H   0  0  0  0  0  0  0  0  0  0  0  0
    2.8579    0.8250    0.0000 H   0  0  0  0  0  0  0  0  0  0  0  0
  1  2  2  0  0  0  0
  2  3  1  0  0  0  0
  3  4  1  0  0  0  0
  4  5  2  0  0  0  0
  5  6  1  0  0  0  0
  5  7  1  0  0  0  0
  7  8  1  0  0  0  0
  7  9  2  0  0  0  0
  9 10  1  0  0  0  0
  9 11  1  0  0  0  0
 11 12  1  0  0  0  0
 11 13  2  0  0  0  0
  4 13  1  0  0  0  0
 13 14  1  0  0  0  0
  3 15  1  0  0  0  0
  3 16  1  0  0  0  0
 16 17  1  0  0  0  0
 16 18  1  0  0  0  0
 16 19  1  0  0  0  0
 19 20  1  0  0  0  0
 19 21  1  0  0  0  0
 19 22  1  0  0  0  0
 22 23  1  0  0  0  0
 22 24  1  0  0  0  0
 22 25  1  0  0  0  0
  2 25  1  0  0  0  0
 25 26  1  0  0  0  0
 26 27  2  0  0  0  0
 27 28  1  0  0  0  0
 27 29  1  0  0  0  0
 29 30  2  0  0  0  0
 30 31  1  0  0  0  0
 30 32  1  0  0  0  0
 32 33  2  0  0  0  0
 33 34  1  0  0  0  0
 34 35  2  0  0  0  0
 35 36  1  0  0  0  0
 36 37  1  0  0  0  0
 36 38  2  0  0  0  0
 26 38  1  0  0  0  0
 32 38  1  0  0  0  0
 35 39  1  0  0  0  0
 34 40  1  0  0  0  0
 33 41  1  0  0  0  0
M  END
> <Potency>
78.2094424667852

> <pIC50>
4.106740810064721

> <Outcome>
Inactive

> <is_active>
0

$$$$

  Mrv1921 08232120312D          

 46 49  0  0  0  0            999 V2000
    0.0000   -1.6500    0.0000 O   0  0  0  0  0  0  0  0  0  0  0  0
    0.7145   -1.2375    0.0000 C   0  0  0  0  0  0  0  0  0  0  0  0
    0.7145   -0.4125    0.0000 C   0  0  0  0  0  0  0  0  0  0  0  0
    0.2611    0.2768    0.0000 H   0  0  0  0  0  0  0  0  0  0  0  0
   -0.1091   -0.3645    0.0000 H   0  0  0  0  0  0  0  0  0  0  0  0
    1.4289    0.0000    0.0000 C   0  0  0  0  0  0  0  0  0  0  0  0
    1.4289    0.8250    0.0000 C   0  0  0  0  0  0  0  0  0  0  0  0
    2.1434    1.2375    0.0000 O   0  0  0  0  0  0  0  0  0  0  0  0
    0.7145    1.2375    0.0000 N   0  0  0  0  0  0  0  0  0  0  0  0
    0.0000    0.8250    0.0000 C   0  0  0  0  0  0  0  0  0  0  0  0
   -0.6060    0.2652    0.0000 H   0  0  0  0  0  0  0  0  0  0  0  0
    0.0000    1.6500    0.0000 H   0  0  0  0  0  0  0  0  0  0  0  0
   -0.7145    1.2375    0.0000 C   0  0  0  0  0  0  0  0  0  0  0  0
   -1.5381    1.1895    0.0000 H   0  0  0  0  0  0  0  0  0  0  0  0
   -1.1678    0.5482    0.0000 H   0  0  0  0  0  0  0  0  0  0  0  0
   -0.7145    2.0625    0.0000 N   0  0  0  0  0  0  0  0  0  0  0  0
   -1.4289    2.4750    0.0000 C   0  0  0  0  0  0  0  0  0  0  0  0
   -2.1434    2.0625    0.0000 C   0  0  0  0  0  0  0  0  0  0  0  0
   -2.1434    1.2375    0.0000 H   0  0  0  0  0  0  0  0  0  0  0  0
   -2.8579    2.4750    0.0000 C   0  0  0  0  0  0  0  0  0  0  0  0
   -3.5724    2.0625    0.0000 H   0  0  0  0  0  0  0  0  0  0  0  0
   -2.8579    3.3000    0.0000 C   0  0  0  0  0  0  0  0  0  0  0  0
   -3.5724    3.7125    0.0000 H   0  0  0  0  0  0  0  0  0  0  0  0
   -2.1434    3.7125    0.0000 C   0  0  0  0  0  0  0  0  0  0  0  0
   -2.1434    4.5375    0.0000 Cl  0  0  0  0  0  0  0  0  0  0  0  0
   -1.4289    3.3000    0.0000 C   0  0  0  0  0  0  0  0  0  0  0  0
   -0.7145    3.7125    0.0000 H   0  0  0  0  0  0  0  0  0  0  0  0
    0.0000    2.4750    0.0000 C   0  0  0  0  0  0  0  0  0  0  0  0
    0.3703    3.2122    0.0000 H   0  0  0  0  0  0  0  0  0  0  0  0
   -0.3703    3.2122    0.0000 H   0  0  0  0  0  0  0  0  0  0  0  0
    0.7145    2.0625    0.0000 C   0  0  0  0  0  0  0  0  0  0  0  0
    1.5381    2.1105    0.0000 H   0  0  0  0  0  0  0  0  0  0  0  0
    1.1678    2.7518    0.0000 H   0  0  0  0  0  0  0  0  0  0  0  0
    2.1434    0.4125    0.0000 H   0  0  0  0  0  0  0  0  0  0  0  0
    2.1434   -0.4125    0.0000 C   0  0  0  0  0  0  0  0  0  0  0  0
    2.8579    0.0000    0.0000 C   0  0  0  0  0  0  0  0  0  0  0  0
    3.5724   -0.4125    0.0000 C   0  0  0  0  0  0  0  0  0  0  0  0
    3.5724   -1.2375    0.0000 C   0  0  0  0  0  0  0  0  0  0  0  0
    2.8579   -1.6500    0.0000 C   0  0  0  0  0  0  0  0  0  0  0  0
    2.8579   -2.4750    0.0000 H   0  0  0  0  0  0  0  0  0  0  0  0
    2.1434   -1.2375    0.0000 C   0  0  0  0  0  0  0  0  0  0  0  0
    1.4289   -1.6500    0.0000 N   0  0  0  0  0  0  0  0  0  0  0  0
    1.4289   -2.4750    0.0000 H   0  0  0  0  0  0  0  0  0  0  0  0
    4.2868   -1.6500    0.0000 H   0  0  0  0  0  0  0  0  0  0  0  0
    4.2868   -0.0000    0.0000 H   0  0  0  0  0  0  0  0  0  0  0  0
    3.2704    0.7145    0.0000 H   0  0  0  0  0  0  0  0  0  0  0  0
  1  2  2  0  0  0  0
  2  3  1  0  0  0  0
  3  4  1  0  0  0  0
  3  5  1  0  0  0  0
  3  6  1  0  0  0  0
  6  7  1  0  0  0  0
  7  8  2  0  0  0  0
  7  9  1  0  0  0  0
  9 10  1  0  0  0  0
 10 11  1  0  0  0  0
 10 12  1  0  0  0  0
 10 13  1  0  0  0  0
 13 14  1  0  0  0  0
 13 15  1  0  0  0  0
 13 16  1  0  0  0  0
 16 17  1  0  0  0  0
 17 18  2  0  0  0  0
 18 19  1  0  0  0  0
 18 20  1  0  0  0  0
 20 21  1  0  0  0  0
 20 22  2  0  0  0  0
 22 23  1  0  0  0  0
 22 24  1  0  0  0  0
 24 25  1  0  0  0  0
 24 26  2  0  0  0  0
 17 26  1  0  0  0  0
 26 27  1  0  0  0  0
 16 28  1  0  0  0  0
 28 29  1  0  0  0  0
 28 30  1  0  0  0  0
 28 31  1  0  0  0  0
  9 31  1  0  0  0  0
 31 32  1  0  0  0  0
 31 33  1  0  0  0  0
  6 34  1  0  0  0  0
  6 35  1  0  0  0  0
 35 36  2  0  0  0  0
 36 37  1  0  0  0  0
 37 38  2  0  0  0  0
 38 39  1  0  0  0  0
 39 40  1  0  0  0  0
 39 41  2  0  0  0  0
 35 41  1  0  0  0  0
 41 42  1  0  0  0  0
  2 42  1  0  0  0  0
 42 43  1  0  0  0  0
 38 44  1  0  0  0  0
 37 45  1  0  0  0  0
 36 46  1  0  0  0  0
M  END
> <Potency>
20.9058364465061

> <pIC50>
4.679732451560838

> <Outcome>
Inactive

> <is_active>
0

$$$$

  Mrv1921 08232120312D          

 58 61  0  0  0  0            999 V2000
    4.6147   -5.3434    0.0000 O   0  0  0  0  0  0  0  0  0  0  0  0
    4.6147   -4.5184    0.0000 C   0  0  0  0  0  0  0  0  0  0  0  0
    3.9002   -4.1059    0.0000 N   0  0  0  0  0  0  0  0  0  0  0  0
    3.1857   -4.5184    0.0000 C   0  0  0  0  0  0  0  0  0  0  0  0
    2.4713   -4.1059    0.0000 C   0  0  0  0  0  0  0  0  0  0  0  0
    1.7568   -4.5184    0.0000 C   0  0  0  0  0  0  0  0  0  0  0  0
    1.7568   -5.3434    0.0000 C   0  0  0  0  0  0  0  0  0  0  0  0
    2.4713   -5.7559    0.0000 H   0  0  0  0  0  0  0  0  0  0  0  0
    1.0423   -5.7559    0.0000 C   0  0  0  0  0  0  0  0  0  0  0  0
    1.0423   -6.5809    0.0000 H   0  0  0  0  0  0  0  0  0  0  0  0
    0.3278   -5.3434    0.0000 C   0  0  0  0  0  0  0  0  0  0  0  0
   -0.3866   -5.7559    0.0000 H   0  0  0  0  0  0  0  0  0  0  0  0
    0.3278   -4.5184    0.0000 C   0  0  0  0  0  0  0  0  0  0  0  0
   -0.3866   -4.1059    0.0000 F   0  0  0  0  0  0  0  0  0  0  0  0
    1.0423   -4.1059    0.0000 C   0  0  0  0  0  0  0  0  0  0  0  0
    1.0423   -3.2809    0.0000 H   0  0  0  0  0  0  0  0  0  0  0  0
    2.8415   -3.3687    0.0000 H   0  0  0  0  0  0  0  0  0  0  0  0
    2.1010   -3.3687    0.0000 H   0  0  0  0  0  0  0  0  0  0  0  0
    2.8155   -5.2557    0.0000 H   0  0  0  0  0  0  0  0  0  0  0  0
    3.5560   -5.2557    0.0000 H   0  0  0  0  0  0  0  0  0  0  0  0
    3.9002   -3.2809    0.0000 H   0  0  0  0  0  0  0  0  0  0  0  0
    5.3291   -4.1059    0.0000 C   0  0  0  0  0  0  0  0  0  0  0  0
    5.3291   -3.2809    0.0000 C   0  0  0  0  0  0  0  0  0  0  0  0
    4.6147   -2.8684    0.0000 C   0  0  0  0  0  0  0  0  0  0  0  0
    5.3291   -2.4559    0.0000 H   0  0  0  0  0  0  0  0  0  0  0  0
    4.6147   -2.0434    0.0000 C   0  0  0  0  0  0  0  0  0  0  0  0
    3.9002   -1.6309    0.0000 H   0  0  0  0  0  0  0  0  0  0  0  0
    5.3291   -1.6309    0.0000 C   0  0  0  0  0  0  0  0  0  0  0  0
    5.3291   -0.8059    0.0000 H   0  0  0  0  0  0  0  0  0  0  0  0
    6.0436   -2.0434    0.0000 N   0  0  0  0  0  0  0  0  0  0  0  0
    6.0436   -2.8684    0.0000 C   0  0  0  0  0  0  0  0  0  0  0  0
    6.4174   -3.6039    0.0000 H   0  0  0  0  0  0  0  0  0  0  0  0
    6.0436   -4.5184    0.0000 N   0  0  0  0  0  0  0  0  0  0  0  0
    6.0436   -5.3434    0.0000 C   0  0  0  0  0  0  0  0  0  0  0  0
    6.7581   -5.7559    0.0000 C   0  0  0  0  0  0  0  0  0  0  0  0
    7.4726   -5.3434    0.0000 C   0  0  0  0  0  0  0  0  0  0  0  0
    8.1289   -4.8436    0.0000 H   0  0  0  0  0  0  0  0  0  0  0  0
    8.1870   -5.7559    0.0000 C   0  0  0  0  0  0  0  0  0  0  0  0
    9.0116   -5.7297    0.0000 H   0  0  0  0  0  0  0  0  0  0  0  0
    8.1870   -6.5809    0.0000 C   0  0  0  0  0  0  0  0  0  0  0  0
    8.9015   -6.9934    0.0000 H   0  0  0  0  0  0  0  0  0  0  0  0
    7.4726   -6.9934    0.0000 C   0  0  0  0  0  0  0  0  0  0  0  0
    7.4726   -7.8184    0.0000 H   0  0  0  0  0  0  0  0  0  0  0  0
    6.7581   -6.5809    0.0000 C   0  0  0  0  0  0  0  0  0  0  0  0
    6.0436   -6.9934    0.0000 H   0  0  0  0  0  0  0  0  0  0  0  0
    5.2200   -5.3914    0.0000 H   0  0  0  0  0  0  0  0  0  0  0  0
    5.5903   -6.0327    0.0000 H   0  0  0  0  0  0  0  0  0  0  0  0
    6.7581   -4.1059    0.0000 C   0  0  0  0  0  0  0  0  0  0  0  0
    7.3101   -4.7190    0.0000 O   0  0  0  0  0  0  0  0  0  0  0  0
    7.0130   -3.3213    0.0000 C   0  0  0  0  0  0  0  0  0  0  0  0
    6.5281   -2.6539    0.0000 C   0  0  0  0  0  0  0  0  0  0  0  0
    7.3531   -2.6539    0.0000 H   0  0  0  0  0  0  0  0  0  0  0  0
    7.0130   -1.9864    0.0000 N   0  0  0  0  0  0  0  0  0  0  0  0
    6.7581   -1.2018    0.0000 H   0  0  0  0  0  0  0  0  0  0  0  0
    7.7976   -2.2414    0.0000 C   0  0  0  0  0  0  0  0  0  0  0  0
    8.4651   -1.7565    0.0000 H   0  0  0  0  0  0  0  0  0  0  0  0
    7.7976   -3.0664    0.0000 N   0  0  0  0  0  0  0  0  0  0  0  0
    4.6147   -3.6934    0.0000 H   0  0  0  0  0  0  0  0  0  0  0  0
  1  2  2  0  0  0  0
  2  3  1  0  0  0  0
  3  4  1  0  0  0  0
  4  5  1  0  0  0  0
  5  6  1  0  0  0  0
  6  7  2  0  0  0  0
  7  8  1  0  0  0  0
  7  9  1  0  0  0  0
  9 10  1  0  0  0  0
  9 11  2  0  0  0  0
 11 12  1  0  0  0  0
 11 13  1  0  0  0  0
 13 14  1  0  0  0  0
 13 15  2  0  0  0  0
  6 15  1  0  0  0  0
 15 16  1  0  0  0  0
  5 17  1  0  0  0  0
  5 18  1  0  0  0  0
  4 19  1  0  0  0  0
  4 20  1  0  0  0  0
  3 21  1  0  0  0  0
  2 22  1  0  0  0  0
 22 23  1  0  0  0  0
 23 24  2  0  0  0  0
 24 25  1  0  0  0  0
 24 26  1  0  0  0  0
 26 27  1  0  0  0  0
 26 28  2  0  0  0  0
 28 29  1  0  0  0  0
 28 30  1  0  0  0  0
 30 31  2  0  0  0  0
 23 31  1  0  0  0  0
 31 32  1  0  0  0  0
 22 33  1  0  0  0  0
 33 34  1  0  0  0  0
 34 35  1  0  0  0  0
 35 36  2  0  0  0  0
 36 37  1  0  0  0  0
 36 38  1  0  0  0  0
 38 39  1  0  0  0  0
 38 40  2  0  0  0  0
 40 41  1  0  0  0  0
 40 42  1  0  0  0  0
 42 43  1  0  0  0  0
 42 44  2  0  0  0  0
 35 44  1  0  0  0  0
 44 45  1  0  0  0  0
 34 46  1  0  0  0  0
 34 47  1  0  0  0  0
 33 48  1  0  0  0  0
 48 49  2  0  0  0  0
 48 50  1  0  0  0  0
 50 51  2  0  0  0  0
 51 52  1  0  0  0  0
 51 53  1  0  0  0  0
 53 54  1  0  0  0  0
 53 55  1  0  0  0  0
 55 56  1  0  0  0  0
 55 57  2  0  0  0  0
 50 57  1  0  0  0  0
 22 58  1  0  0  0  0
M  END
> <Potency>
99.0

> <pIC50>
4.00436480540245

> <Outcome>
Inactive

> <is_active>
0

$$$$

  Mrv1921 08232120312D          

 57 60  0  0  0  0            999 V2000
    4.6147   -5.3434    0.0000 O   0  0  0  0  0  0  0  0  0  0  0  0
    4.6147   -4.5184    0.0000 C   0  0  0  0  0  0  0  0  0  0  0  0
    3.9002   -4.1059    0.0000 N   0  0  0  0  0  0  0  0  0  0  0  0
    3.1857   -4.5184    0.0000 C   0  0  0  0  0  0  0  0  0  0  0  0
    2.4713   -4.1059    0.0000 C   0  0  0  0  0  0  0  0  0  0  0  0
    1.7568   -4.5184    0.0000 C   0  0  0  0  0  0  0  0  0  0  0  0
    1.7568   -5.3434    0.0000 C   0  0  0  0  0  0  0  0  0  0  0  0
    2.4713   -5.7559    0.0000 H   0  0  0  0  0  0  0  0  0  0  0  0
    1.0423   -5.7559    0.0000 C   0  0  0  0  0  0  0  0  0  0  0  0
    1.0423   -6.5809    0.0000 H   0  0  0  0  0  0  0  0  0  0  0  0
    0.3278   -5.3434    0.0000 C   0  0  0  0  0  0  0  0  0  0  0  0
   -0.3866   -5.7559    0.0000 H   0  0  0  0  0  0  0  0  0  0  0  0
    0.3278   -4.5184    0.0000 C   0  0  0  0  0  0  0  0  0  0  0  0
   -0.3866   -4.1059    0.0000 F   0  0  0  0  0  0  0  0  0  0  0  0
    1.0423   -4.1059    0.0000 C   0  0  0  0  0  0  0  0  0  0  0  0
    1.0423   -3.2809    0.0000 H   0  0  0  0  0  0  0  0  0  0  0  0
    2.8415   -3.3687    0.0000 H   0  0  0  0  0  0  0  0  0  0  0  0
    2.1010   -3.3687    0.0000 H   0  0  0  0  0  0  0  0  0  0  0  0
    2.8155   -5.2557    0.0000 H   0  0  0  0  0  0  0  0  0  0  0  0
    3.5560   -5.2557    0.0000 H   0  0  0  0  0  0  0  0  0  0  0  0
    3.9002   -3.2809    0.0000 H   0  0  0  0  0  0  0  0  0  0  0  0
    5.3291   -4.1059    0.0000 C   0  0  0  0  0  0  0  0  0  0  0  0
    5.3291   -3.2809    0.0000 C   0  0  0  0  0  0  0  0  0  0  0  0
    4.6147   -2.8684    0.0000 C   0  0  0  0  0  0  0  0  0  0  0  0
    5.3291   -2.4559    0.0000 H   0  0  0  0  0  0  0  0  0  0  0  0
    4.6147   -2.0434    0.0000 C   0  0  0  0  0  0  0  0  0  0  0  0
    3.9002   -1.6309    0.0000 H   0  0  0  0  0  0  0  0  0  0  0  0
    5.3291   -1.6309    0.0000 C   0  0  0  0  0  0  0  0  0  0  0  0
    5.3291   -0.8059    0.0000 H   0  0  0  0  0  0  0  0  0  0  0  0
    6.0436   -2.0434    0.0000 N   0  0  0  0  0  0  0  0  0  0  0  0
    6.0436   -2.8684    0.0000 C   0  0  0  0  0  0  0  0  0  0  0  0
    6.4174   -3.6039    0.0000 H   0  0  0  0  0  0  0  0  0  0  0  0
    6.0436   -4.5184    0.0000 N   0  0  0  0  0  0  0  0  0  0  0  0
    6.0436   -5.3434    0.0000 C   0  0  0  0  0  0  0  0  0  0  0  0
    6.7581   -5.7559    0.0000 C   0  0  0  0  0  0  0  0  0  0  0  0
    7.4726   -5.3434    0.0000 C   0  0  0  0  0  0  0  0  0  0  0  0
    8.1289   -4.8436    0.0000 H   0  0  0  0  0  0  0  0  0  0  0  0
    8.1870   -5.7559    0.0000 C   0  0  0  0  0  0  0  0  0  0  0  0
    9.0116   -5.7297    0.0000 H   0  0  0  0  0  0  0  0  0  0  0  0
    8.1870   -6.5809    0.0000 C   0  0  0  0  0  0  0  0  0  0  0  0
    8.9015   -6.9934    0.0000 H   0  0  0  0  0  0  0  0  0  0  0  0
    7.4726   -6.9934    0.0000 N   0  0  0  0  0  0  0  0  0  0  0  0
    6.7581   -6.5809    0.0000 C   0  0  0  0  0  0  0  0  0  0  0  0
    6.0436   -6.9934    0.0000 H   0  0  0  0  0  0  0  0  0  0  0  0
    5.2200   -5.3914    0.0000 H   0  0  0  0  0  0  0  0  0  0  0  0
    5.5903   -6.0327    0.0000 H   0  0  0  0  0  0  0  0  0  0  0  0
    6.7581   -4.1059    0.0000 C   0  0  0  0  0  0  0  0  0  0  0  0
    7.3101   -4.7190    0.0000 O   0  0  0  0  0  0  0  0  0  0  0  0
    7.0130   -3.3213    0.0000 C   0  0  0  0  0  0  0  0  0  0  0  0
    6.5281   -2.6539    0.0000 C   0  0  0  0  0  0  0  0  0  0  0  0
    7.3531   -2.6539    0.0000 H   0  0  0  0  0  0  0  0  0  0  0  0
    7.0130   -1.9864    0.0000 N   0  0  0  0  0  0  0  0  0  0  0  0
    6.7581   -1.2018    0.0000 H   0  0  0  0  0  0  0  0  0  0  0  0
    7.7976   -2.2414    0.0000 C   0  0  0  0  0  0  0  0  0  0  0  0
    8.4651   -1.7565    0.0000 H   0  0  0  0  0  0  0  0  0  0  0  0
    7.7976   -3.0664    0.0000 N   0  0  0  0  0  0  0  0  0  0  0  0
    4.6147   -3.6934    0.0000 H   0  0  0  0  0  0  0  0  0  0  0  0
  1  2  2  0  0  0  0
  2  3  1  0  0  0  0
  3  4  1  0  0  0  0
  4  5  1  0  0  0  0
  5  6  1  0  0  0  0
  6  7  2  0  0  0  0
  7  8  1  0  0  0  0
  7  9  1  0  0  0  0
  9 10  1  0  0  0  0
  9 11  2  0  0  0  0
 11 12  1  0  0  0  0
 11 13  1  0  0  0  0
 13 14  1  0  0  0  0
 13 15  2  0  0  0  0
  6 15  1  0  0  0  0
 15 16  1  0  0  0  0
  5 17  1  0  0  0  0
  5 18  1  0  0  0  0
  4 19  1  0  0  0  0
  4 20  1  0  0  0  0
  3 21  1  0  0  0  0
  2 22  1  0  0  0  0
 22 23  1  0  0  0  0
 23 24  2  0  0  0  0
 24 25  1  0  0  0  0
 24 26  1  0  0  0  0
 26 27  1  0  0  0  0
 26 28  2  0  0  0  0
 28 29  1  0  0  0  0
 28 30  1  0  0  0  0
 30 31  2  0  0  0  0
 23 31  1  0  0  0  0
 31 32  1  0  0  0  0
 22 33  1  0  0  0  0
 33 34  1  0  0  0  0
 34 35  1  0  0  0  0
 35 36  2  0  0  0  0
 36 37  1  0  0  0  0
 36 38  1  0  0  0  0
 38 39  1  0  0  0  0
 38 40  2  0  0  0  0
 40 41  1  0  0  0  0
 40 42  1  0  0  0  0
 42 43  2  0  0  0  0
 35 43  1  0  0  0  0
 43 44  1  0  0  0  0
 34 45  1  0  0  0  0
 34 46  1  0  0  0  0
 33 47  1  0  0  0  0
 47 48  2  0  0  0  0
 47 49  1  0  0  0  0
 49 50  2  0  0  0  0
 50 51  1  0  0  0  0
 50 52  1  0  0  0  0
 52 53  1  0  0  0  0
 52 54  1  0  0  0  0
 54 55  1  0  0  0  0
 54 56  2  0  0  0  0
 49 56  1  0  0  0  0
 22 57  1  0  0  0  0
M  END
> <Potency>
99.0

> <pIC50>
4.00436480540245

> <Outcome>
Inactive

> <is_active>
0

$$$$

  Mrv1921 08232120312D          

 64 67  0  0  0  0            999 V2000
    5.9958   -3.7533    0.0000 O   0  0  0  0  0  0  0  0  0  0  0  0
    5.9958   -2.9283    0.0000 C   0  0  0  0  0  0  0  0  0  0  0  0
    5.2814   -2.5158    0.0000 N   0  0  0  0  0  0  0  0  0  0  0  0
    4.5669   -2.9283    0.0000 C   0  0  0  0  0  0  0  0  0  0  0  0
    3.8524   -2.5158    0.0000 C   0  0  0  0  0  0  0  0  0  0  0  0
    3.1380   -2.9283    0.0000 C   0  0  0  0  0  0  0  0  0  0  0  0
    3.1380   -3.7533    0.0000 C   0  0  0  0  0  0  0  0  0  0  0  0
    3.8524   -4.1658    0.0000 H   0  0  0  0  0  0  0  0  0  0  0  0
    2.4235   -4.1658    0.0000 C   0  0  0  0  0  0  0  0  0  0  0  0
    2.4235   -4.9908    0.0000 H   0  0  0  0  0  0  0  0  0  0  0  0
    1.7090   -3.7533    0.0000 C   0  0  0  0  0  0  0  0  0  0  0  0
    0.9945   -4.1658    0.0000 H   0  0  0  0  0  0  0  0  0  0  0  0
    1.7090   -2.9283    0.0000 C   0  0  0  0  0  0  0  0  0  0  0  0
    0.9945   -2.5158    0.0000 F   0  0  0  0  0  0  0  0  0  0  0  0
    2.4235   -2.5158    0.0000 C   0  0  0  0  0  0  0  0  0  0  0  0
    2.4235   -1.6908    0.0000 H   0  0  0  0  0  0  0  0  0  0  0  0
    4.2227   -1.7785    0.0000 H   0  0  0  0  0  0  0  0  0  0  0  0
    3.4822   -1.7785    0.0000 H   0  0  0  0  0  0  0  0  0  0  0  0
    4.1966   -3.6655    0.0000 H   0  0  0  0  0  0  0  0  0  0  0  0
    4.9372   -3.6655    0.0000 H   0  0  0  0  0  0  0  0  0  0  0  0
    5.2814   -1.6908    0.0000 H   0  0  0  0  0  0  0  0  0  0  0  0
    6.7103   -2.5158    0.0000 C   0  0  0  0  0  0  0  0  0  0  0  0
    6.7103   -1.6908    0.0000 C   0  0  0  0  0  0  0  0  0  0  0  0
    5.9958   -1.2783    0.0000 C   0  0  0  0  0  0  0  0  0  0  0  0
    5.2814   -0.8658    0.0000 H   0  0  0  0  0  0  0  0  0  0  0  0
    5.9958   -0.4533    0.0000 C   0  0  0  0  0  0  0  0  0  0  0  0
    5.5833    0.2612    0.0000 H   0  0  0  0  0  0  0  0  0  0  0  0
    6.7103   -0.0408    0.0000 C   0  0  0  0  0  0  0  0  0  0  0  0
    6.7103    0.7842    0.0000 H   0  0  0  0  0  0  0  0  0  0  0  0
    7.4248   -0.4533    0.0000 N   0  0  0  0  0  0  0  0  0  0  0  0
    7.4248   -1.2783    0.0000 C   0  0  0  0  0  0  0  0  0  0  0  0
    7.4248   -2.1033    0.0000 H   0  0  0  0  0  0  0  0  0  0  0  0
    7.4248   -2.9283    0.0000 N   0  0  0  0  0  0  0  0  0  0  0  0
    8.1393   -2.5158    0.0000 C   0  0  0  0  0  0  0  0  0  0  0  0
    8.1393   -1.6908    0.0000 O   0  0  0  0  0  0  0  0  0  0  0  0
    8.8537   -2.9283    0.0000 C   0  0  0  0  0  0  0  0  0  0  0  0
    9.6074   -2.5927    0.0000 C   0  0  0  0  0  0  0  0  0  0  0  0
    9.7789   -1.7857    0.0000 H   0  0  0  0  0  0  0  0  0  0  0  0
   10.1594   -3.2058    0.0000 N   0  0  0  0  0  0  0  0  0  0  0  0
   10.9799   -3.1196    0.0000 H   0  0  0  0  0  0  0  0  0  0  0  0
    9.7469   -3.9203    0.0000 C   0  0  0  0  0  0  0  0  0  0  0  0
   10.0825   -4.6740    0.0000 H   0  0  0  0  0  0  0  0  0  0  0  0
    8.9400   -3.7488    0.0000 N   0  0  0  0  0  0  0  0  0  0  0  0
    7.4248   -3.7533    0.0000 C   0  0  0  0  0  0  0  0  0  0  0  0
    8.1681   -4.1112    0.0000 C   0  0  0  0  0  0  0  0  0  0  0  0
    8.1721   -3.2862    0.0000 H   0  0  0  0  0  0  0  0  0  0  0  0
    7.5231   -4.6256    0.0000 H   0  0  0  0  0  0  0  0  0  0  0  0
    8.3517   -4.9155    0.0000 C   0  0  0  0  0  0  0  0  0  0  0  0
    8.9967   -5.4299    0.0000 H   0  0  0  0  0  0  0  0  0  0  0  0
    9.1560   -4.7320    0.0000 H   0  0  0  0  0  0  0  0  0  0  0  0
    7.8373   -5.5606    0.0000 C   0  0  0  0  0  0  0  0  0  0  0  0
    7.8373   -6.3856    0.0000 H   0  0  0  0  0  0  0  0  0  0  0  0
    8.4823   -6.0749    0.0000 H   0  0  0  0  0  0  0  0  0  0  0  0
    7.0123   -5.5606    0.0000 C   0  0  0  0  0  0  0  0  0  0  0  0
    6.3673   -6.0749    0.0000 H   0  0  0  0  0  0  0  0  0  0  0  0
    7.0123   -6.3856    0.0000 H   0  0  0  0  0  0  0  0  0  0  0  0
    6.4979   -4.9155    0.0000 C   0  0  0  0  0  0  0  0  0  0  0  0
    5.6936   -4.7320    0.0000 H   0  0  0  0  0  0  0  0  0  0  0  0
    5.8529   -5.4299    0.0000 H   0  0  0  0  0  0  0  0  0  0  0  0
    6.6815   -4.1112    0.0000 C   0  0  0  0  0  0  0  0  0  0  0  0
    7.3265   -4.6256    0.0000 H   0  0  0  0  0  0  0  0  0  0  0  0
    5.9325   -4.4571    0.0000 H   0  0  0  0  0  0  0  0  0  0  0  0
    6.7262   -3.3143    0.0000 H   0  0  0  0  0  0  0  0  0  0  0  0
    5.9958   -2.1033    0.0000 H   0  0  0  0  0  0  0  0  0  0  0  0
  1  2  2  0  0  0  0
  2  3  1  0  0  0  0
  3  4  1  0  0  0  0
  4  5  1  0  0  0  0
  5  6  1  0  0  0  0
  6  7  2  0  0  0  0
  7  8  1  0  0  0  0
  7  9  1  0  0  0  0
  9 10  1  0  0  0  0
  9 11  2  0  0  0  0
 11 12  1  0  0  0  0
 11 13  1  0  0  0  0
 13 14  1  0  0  0  0
 13 15  2  0  0  0  0
  6 15  1  0  0  0  0
 15 16  1  0  0  0  0
  5 17  1  0  0  0  0
  5 18  1  0  0  0  0
  4 19  1  0  0  0  0
  4 20  1  0  0  0  0
  3 21  1  0  0  0  0
  2 22  1  0  0  0  0
 22 23  1  0  0  0  0
 23 24  2  0  0  0  0
 24 25  1  0  0  0  0
 24 26  1  0  0  0  0
 26 27  1  0  0  0  0
 26 28  2  0  0  0  0
 28 29  1  0  0  0  0
 28 30  1  0  0  0  0
 30 31  2  0  0  0  0
 23 31  1  0  0  0  0
 31 32  1  0  0  0  0
 22 33  1  0  0  0  0
 33 34  1  0  0  0  0
 34 35  2  0  0  0  0
 34 36  1  0  0  0  0
 36 37  2  0  0  0  0
 37 38  1  0  0  0  0
 37 39  1  0  0  0  0
 39 40  1  0  0  0  0
 39 41  1  0  0  0  0
 41 42  1  0  0  0  0
 41 43  2  0  0  0  0
 36 43  1  0  0  0  0
 33 44  1  0  0  0  0
 44 45  1  0  0  0  0
 45 46  1  0  0  0  0
 45 47  1  0  0  0  0
 45 48  1  0  0  0  0
 48 49  1  0  0  0  0
 48 50  1  0  0  0  0
 48 51  1  0  0  0  0
 51 52  1  0  0  0  0
 51 53  1  0  0  0  0
 51 54  1  0  0  0  0
 54 55  1  0  0  0  0
 54 56  1  0  0  0  0
 54 57  1  0  0  0  0
 57 58  1  0  0  0  0
 57 59  1  0  0  0  0
 57 60  1  0  0  0  0
 44 60  1  0  0  0  0
 60 61  1  0  0  0  0
 60 62  1  0  0  0  0
 44 63  1  0  0  0  0
 22 64  1  0  0  0  0
M  END
> <Potency>
99.0

> <pIC50>
4.00436480540245

> <Outcome>
Inactive

> <is_active>
0

$$$$

  Mrv1921 08232120312D          

 67 70  0  0  0  0            999 V2000
   -3.2405    1.2668    0.0000 C   0  0  0  0  0  0  0  0  0  0  0  0
   -2.4304    1.4228    0.0000 C   0  0  0  0  0  0  0  0  0  0  0  0
   -2.1604    2.2023    0.0000 C   0  0  0  0  0  0  0  0  0  0  0  0
   -1.4773    1.7397    0.0000 H   0  0  0  0  0  0  0  0  0  0  0  0
   -1.5367    2.7424    0.0000 H   0  0  0  0  0  0  0  0  0  0  0  0
   -2.5206    2.9445    0.0000 H   0  0  0  0  0  0  0  0  0  0  0  0
   -1.8903    0.7991    0.0000 S   0  0  0  0  0  0  0  0  0  0  0  0
   -2.5140    0.2590    0.0000 O   0  0  0  0  0  0  0  0  0  0  0  0
   -1.2667    1.3392    0.0000 O   0  0  0  0  0  0  0  0  0  0  0  0
   -1.3502    0.1755    0.0000 C   0  0  0  0  0  0  0  0  0  0  0  0
   -0.5401    0.3314    0.0000 C   0  0  0  0  0  0  0  0  0  0  0  0
   -0.2700    1.1109    0.0000 H   0  0  0  0  0  0  0  0  0  0  0  0
    0.0000   -0.2923    0.0000 C   0  0  0  0  0  0  0  0  0  0  0  0
    0.5401   -0.9159    0.0000 H   0  0  0  0  0  0  0  0  0  0  0  0
   -0.2700   -1.0718    0.0000 C   0  0  0  0  0  0  0  0  0  0  0  0
    0.2700   -1.6954    0.0000 N   0  0  0  0  0  0  0  0  0  0  0  0
    0.0000   -2.4750    0.0000 C   0  0  0  0  0  0  0  0  0  0  0  0
    0.5401   -3.0986    0.0000 O   0  0  0  0  0  0  0  0  0  0  0  0
   -0.8101   -2.6309    0.0000 C   0  0  0  0  0  0  0  0  0  0  0  0
   -1.1602   -3.3780    0.0000 C   0  0  0  0  0  0  0  0  0  0  0  0
   -0.7616   -4.1003    0.0000 H   0  0  0  0  0  0  0  0  0  0  0  0
   -1.9788   -3.2759    0.0000 N   0  0  0  0  0  0  0  0  0  0  0  0
   -2.5426   -3.8782    0.0000 H   0  0  0  0  0  0  0  0  0  0  0  0
   -2.1348   -2.4658    0.0000 C   0  0  0  0  0  0  0  0  0  0  0  0
   -2.8818   -2.1157    0.0000 H   0  0  0  0  0  0  0  0  0  0  0  0
   -1.4125   -2.0671    0.0000 N   0  0  0  0  0  0  0  0  0  0  0  0
    1.0802   -1.5395    0.0000 C   0  0  0  0  0  0  0  0  0  0  0  0
    1.6203   -2.1632    0.0000 C   0  0  0  0  0  0  0  0  0  0  0  0
    1.3502   -2.9427    0.0000 O   0  0  0  0  0  0  0  0  0  0  0  0
    2.4304   -2.0073    0.0000 N   0  0  0  0  0  0  0  0  0  0  0  0
    2.9705   -2.6309    0.0000 C   0  0  0  0  0  0  0  0  0  0  0  0
    3.7806   -2.4750    0.0000 C   0  0  0  0  0  0  0  0  0  0  0  0
    4.3207   -3.0986    0.0000 C   0  0  0  0  0  0  0  0  0  0  0  0
    5.1308   -2.9427    0.0000 C   0  0  0  0  0  0  0  0  0  0  0  0
    5.4009   -2.1632    0.0000 H   0  0  0  0  0  0  0  0  0  0  0  0
    5.6709   -3.5664    0.0000 C   0  0  0  0  0  0  0  0  0  0  0  0
    6.4811   -3.4105    0.0000 H   0  0  0  0  0  0  0  0  0  0  0  0
    5.4009   -4.3459    0.0000 C   0  0  0  0  0  0  0  0  0  0  0  0
    5.9410   -4.9696    0.0000 H   0  0  0  0  0  0  0  0  0  0  0  0
    4.5908   -4.5018    0.0000 C   0  0  0  0  0  0  0  0  0  0  0  0
    4.3207   -5.2814    0.0000 F   0  0  0  0  0  0  0  0  0  0  0  0
    4.0507   -3.8782    0.0000 C   0  0  0  0  0  0  0  0  0  0  0  0
    3.2405   -4.0341    0.0000 H   0  0  0  0  0  0  0  0  0  0  0  0
    4.3718   -1.8996    0.0000 H   0  0  0  0  0  0  0  0  0  0  0  0
    3.6721   -1.6572    0.0000 H   0  0  0  0  0  0  0  0  0  0  0  0
    2.3793   -3.2063    0.0000 H   0  0  0  0  0  0  0  0  0  0  0  0
    3.0790   -3.4487    0.0000 H   0  0  0  0  0  0  0  0  0  0  0  0
    2.7004   -1.2277    0.0000 H   0  0  0  0  0  0  0  0  0  0  0  0
    1.3502   -0.7600    0.0000 C   0  0  0  0  0  0  0  0  0  0  0  0
    0.8101   -0.1363    0.0000 C   0  0  0  0  0  0  0  0  0  0  0  0
    0.2700    0.4873    0.0000 H   0  0  0  0  0  0  0  0  0  0  0  0
    1.0802    0.6432    0.0000 C   0  0  0  0  0  0  0  0  0  0  0  0
    0.9243    1.4533    0.0000 H   0  0  0  0  0  0  0  0  0  0  0  0
    1.8903    0.7991    0.0000 C   0  0  0  0  0  0  0  0  0  0  0  0
    2.1604    1.5787    0.0000 H   0  0  0  0  0  0  0  0  0  0  0  0
    2.4304    0.1755    0.0000 N   0  0  0  0  0  0  0  0  0  0  0  0
    2.1604   -0.6041    0.0000 C   0  0  0  0  0  0  0  0  0  0  0  0
    1.8903   -1.3836    0.0000 H   0  0  0  0  0  0  0  0  0  0  0  0
    0.8101   -2.3191    0.0000 H   0  0  0  0  0  0  0  0  0  0  0  0
   -1.0802   -1.2277    0.0000 C   0  0  0  0  0  0  0  0  0  0  0  0
   -1.8935   -1.3660    0.0000 H   0  0  0  0  0  0  0  0  0  0  0  0
   -1.6203   -0.6041    0.0000 C   0  0  0  0  0  0  0  0  0  0  0  0
   -2.3983   -0.3298    0.0000 H   0  0  0  0  0  0  0  0  0  0  0  0
   -2.9705    2.0464    0.0000 H   0  0  0  0  0  0  0  0  0  0  0  0
   -3.3964    2.0770    0.0000 H   0  0  0  0  0  0  0  0  0  0  0  0
   -4.0507    1.1109    0.0000 H   0  0  0  0  0  0  0  0  0  0  0  0
   -3.0846    0.4567    0.0000 H   0  0  0  0  0  0  0  0  0  0  0  0
  1  2  1  0  0  0  0
  2  3  1  0  0  0  0
  3  4  1  0  0  0  0
  3  5  1  0  0  0  0
  3  6  1  0  0  0  0
  2  7  1  0  0  0  0
  7  8  2  0  0  0  0
  7  9  2  0  0  0  0
  7 10  1  0  0  0  0
 10 11  2  0  0  0  0
 11 12  1  0  0  0  0
 11 13  1  0  0  0  0
 13 14  1  0  0  0  0
 13 15  2  0  0  0  0
 15 16  1  0  0  0  0
 16 17  1  0  0  0  0
 17 18  2  0  0  0  0
 17 19  1  0  0  0  0
 19 20  2  0  0  0  0
 20 21  1  0  0  0  0
 20 22  1  0  0  0  0
 22 23  1  0  0  0  0
 22 24  1  0  0  0  0
 24 25  1  0  0  0  0
 24 26  2  0  0  0  0
 19 26  1  0  0  0  0
 16 27  1  0  0  0  0
 27 28  1  0  0  0  0
 28 29  2  0  0  0  0
 28 30  1  0  0  0  0
 30 31  1  0  0  0  0
 31 32  1  0  0  0  0
 32 33  1  0  0  0  0
 33 34  2  0  0  0  0
 34 35  1  0  0  0  0
 34 36  1  0  0  0  0
 36 37  1  0  0  0  0
 36 38  2  0  0  0  0
 38 39  1  0  0  0  0
 38 40  1  0  0  0  0
 40 41  1  0  0  0  0
 40 42  2  0  0  0  0
 33 42  1  0  0  0  0
 42 43  1  0  0  0  0
 32 44  1  0  0  0  0
 32 45  1  0  0  0  0
 31 46  1  0  0  0  0
 31 47  1  0  0  0  0
 30 48  1  0  0  0  0
 27 49  1  0  0  0  0
 49 50  2  0  0  0  0
 50 51  1  0  0  0  0
 50 52  1  0  0  0  0
 52 53  1  0  0  0  0
 52 54  2  0  0  0  0
 54 55  1  0  0  0  0
 54 56  1  0  0  0  0
 56 57  2  0  0  0  0
 49 57  1  0  0  0  0
 57 58  1  0  0  0  0
 27 59  1  0  0  0  0
 15 60  1  0  0  0  0
 60 61  1  0  0  0  0
 60 62  2  0  0  0  0
 10 62  1  0  0  0  0
 62 63  1  0  0  0  0
  2 64  1  0  0  0  0
  1 65  1  0  0  0  0
  1 66  1  0  0  0  0
  1 67  1  0  0  0  0
M  END
> <Potency>
99.0

> <pIC50>
4.00436480540245

> <Outcome>
Inactive

> <is_active>
0

$$$$

  Mrv1921 08232120312D          

 59 62  0  0  0  0            999 V2000
    5.2883   -3.6573    0.0000 O   0  0  0  0  0  0  0  0  0  0  0  0
    5.0182   -4.4368    0.0000 C   0  0  0  0  0  0  0  0  0  0  0  0
    4.2081   -4.5927    0.0000 N   0  0  0  0  0  0  0  0  0  0  0  0
    3.6680   -3.9691    0.0000 C   0  0  0  0  0  0  0  0  0  0  0  0
    2.8579   -4.1250    0.0000 C   0  0  0  0  0  0  0  0  0  0  0  0
    2.3178   -3.5014    0.0000 C   0  0  0  0  0  0  0  0  0  0  0  0
    1.5077   -3.6573    0.0000 C   0  0  0  0  0  0  0  0  0  0  0  0
    1.2376   -4.4368    0.0000 H   0  0  0  0  0  0  0  0  0  0  0  0
    0.9676   -3.0336    0.0000 C   0  0  0  0  0  0  0  0  0  0  0  0
    0.1574   -3.1895    0.0000 H   0  0  0  0  0  0  0  0  0  0  0  0
    1.2376   -2.2541    0.0000 C   0  0  0  0  0  0  0  0  0  0  0  0
    0.6975   -1.6304    0.0000 H   0  0  0  0  0  0  0  0  0  0  0  0
    2.0477   -2.0982    0.0000 C   0  0  0  0  0  0  0  0  0  0  0  0
    2.3178   -1.3186    0.0000 F   0  0  0  0  0  0  0  0  0  0  0  0
    2.5878   -2.7218    0.0000 C   0  0  0  0  0  0  0  0  0  0  0  0
    3.3980   -2.5659    0.0000 H   0  0  0  0  0  0  0  0  0  0  0  0
    2.2667   -4.7004    0.0000 H   0  0  0  0  0  0  0  0  0  0  0  0
    2.9664   -4.9428    0.0000 H   0  0  0  0  0  0  0  0  0  0  0  0
    4.2592   -3.3937    0.0000 H   0  0  0  0  0  0  0  0  0  0  0  0
    3.5595   -3.1513    0.0000 H   0  0  0  0  0  0  0  0  0  0  0  0
    3.9381   -5.3723    0.0000 H   0  0  0  0  0  0  0  0  0  0  0  0
    5.5583   -5.0605    0.0000 C   0  0  0  0  0  0  0  0  0  0  0  0
    5.2883   -5.8400    0.0000 C   0  0  0  0  0  0  0  0  0  0  0  0
    5.8284   -6.4637    0.0000 C   0  0  0  0  0  0  0  0  0  0  0  0
    6.0984   -5.6841    0.0000 H   0  0  0  0  0  0  0  0  0  0  0  0
    5.5583   -7.2432    0.0000 C   0  0  0  0  0  0  0  0  0  0  0  0
    6.0984   -7.8668    0.0000 H   0  0  0  0  0  0  0  0  0  0  0  0
    4.7482   -7.3991    0.0000 C   0  0  0  0  0  0  0  0  0  0  0  0
    4.4782   -8.1787    0.0000 H   0  0  0  0  0  0  0  0  0  0  0  0
    4.2081   -6.7755    0.0000 N   0  0  0  0  0  0  0  0  0  0  0  0
    4.4782   -5.9959    0.0000 C   0  0  0  0  0  0  0  0  0  0  0  0
    3.6680   -6.1518    0.0000 H   0  0  0  0  0  0  0  0  0  0  0  0
    6.3685   -4.9046    0.0000 N   0  0  0  0  0  0  0  0  0  0  0  0
    6.6385   -4.1250    0.0000 C   0  0  0  0  0  0  0  0  0  0  0  0
    6.0984   -3.5014    0.0000 O   0  0  0  0  0  0  0  0  0  0  0  0
    7.4486   -3.9691    0.0000 C   0  0  0  0  0  0  0  0  0  0  0  0
    7.7987   -3.2220    0.0000 C   0  0  0  0  0  0  0  0  0  0  0  0
    7.4001   -2.4997    0.0000 H   0  0  0  0  0  0  0  0  0  0  0  0
    8.6174   -3.3241    0.0000 N   0  0  0  0  0  0  0  0  0  0  0  0
    9.1811   -2.7218    0.0000 H   0  0  0  0  0  0  0  0  0  0  0  0
    8.7733   -4.1342    0.0000 C   0  0  0  0  0  0  0  0  0  0  0  0
    9.5203   -4.4843    0.0000 H   0  0  0  0  0  0  0  0  0  0  0  0
    8.0510   -4.5329    0.0000 N   0  0  0  0  0  0  0  0  0  0  0  0
    6.9086   -5.5282    0.0000 C   0  0  0  0  0  0  0  0  0  0  0  0
    7.7187   -5.3723    0.0000 C   0  0  0  0  0  0  0  0  0  0  0  0
    7.1923   -4.7371    0.0000 H   0  0  0  0  0  0  0  0  0  0  0  0
    8.2588   -5.9959    0.0000 C   0  0  0  0  0  0  0  0  0  0  0  0
    9.0689   -5.8400    0.0000 H   0  0  0  0  0  0  0  0  0  0  0  0
    7.9887   -6.7755    0.0000 C   0  0  0  0  0  0  0  0  0  0  0  0
    8.5288   -7.3991    0.0000 O   0  0  0  0  0  0  0  0  0  0  0  0
    8.2588   -8.1787    0.0000 C   0  0  0  0  0  0  0  0  0  0  0  0
    8.7989   -8.8023    0.0000 F   0  0  0  0  0  0  0  0  0  0  0  0
    7.4486   -8.3346    0.0000 F   0  0  0  0  0  0  0  0  0  0  0  0
    9.0689   -8.0228    0.0000 H   0  0  0  0  0  0  0  0  0  0  0  0
    7.1786   -6.9314    0.0000 C   0  0  0  0  0  0  0  0  0  0  0  0
    6.9086   -7.7109    0.0000 H   0  0  0  0  0  0  0  0  0  0  0  0
    6.6385   -6.3077    0.0000 C   0  0  0  0  0  0  0  0  0  0  0  0
    7.4486   -6.1518    0.0000 H   0  0  0  0  0  0  0  0  0  0  0  0
    4.7482   -5.2164    0.0000 H   0  0  0  0  0  0  0  0  0  0  0  0
  1  2  2  0  0  0  0
  2  3  1  0  0  0  0
  3  4  1  0  0  0  0
  4  5  1  0  0  0  0
  5  6  1  0  0  0  0
  6  7  2  0  0  0  0
  7  8  1  0  0  0  0
  7  9  1  0  0  0  0
  9 10  1  0  0  0  0
  9 11  2  0  0  0  0
 11 12  1  0  0  0  0
 11 13  1  0  0  0  0
 13 14  1  0  0  0  0
 13 15  2  0  0  0  0
  6 15  1  0  0  0  0
 15 16  1  0  0  0  0
  5 17  1  0  0  0  0
  5 18  1  0  0  0  0
  4 19  1  0  0  0  0
  4 20  1  0  0  0  0
  3 21  1  0  0  0  0
  2 22  1  0  0  0  0
 22 23  1  0  0  0  0
 23 24  2  0  0  0  0
 24 25  1  0  0  0  0
 24 26  1  0  0  0  0
 26 27  1  0  0  0  0
 26 28  2  0  0  0  0
 28 29  1  0  0  0  0
 28 30  1  0  0  0  0
 30 31  2  0  0  0  0
 23 31  1  0  0  0  0
 31 32  1  0  0  0  0
 22 33  1  0  0  0  0
 33 34  1  0  0  0  0
 34 35  2  0  0  0  0
 34 36  1  0  0  0  0
 36 37  2  0  0  0  0
 37 38  1  0  0  0  0
 37 39  1  0  0  0  0
 39 40  1  0  0  0  0
 39 41  1  0  0  0  0
 41 42  1  0  0  0  0
 41 43  2  0  0  0  0
 36 43  1  0  0  0  0
 33 44  1  0  0  0  0
 44 45  2  0  0  0  0
 45 46  1  0  0  0  0
 45 47  1  0  0  0  0
 47 48  1  0  0  0  0
 47 49  2  0  0  0  0
 49 50  1  0  0  0  0
 50 51  1  0  0  0  0
 51 52  1  0  0  0  0
 51 53  1  0  0  0  0
 51 54  1  0  0  0  0
 49 55  1  0  0  0  0
 55 56  1  0  0  0  0
 55 57  2  0  0  0  0
 44 57  1  0  0  0  0
 57 58  1  0  0  0  0
 22 59  1  0  0  0  0
M  END
> <Potency>
22.1334497786516

> <pIC50>
4.654950890498054

> <Outcome>
Inactive

> <is_active>
0

$$$$

  Mrv1921 08232120312D          

 59 62  0  0  0  0            999 V2000
   -2.7004    0.6432    0.0000 C   0  0  0  0  0  0  0  0  0  0  0  0
   -1.8903    0.7991    0.0000 O   0  0  0  0  0  0  0  0  0  0  0  0
   -1.3502    0.1755    0.0000 C   0  0  0  0  0  0  0  0  0  0  0  0
   -0.5401    0.3314    0.0000 C   0  0  0  0  0  0  0  0  0  0  0  0
   -0.2700    1.1109    0.0000 H   0  0  0  0  0  0  0  0  0  0  0  0
    0.0000   -0.2923    0.0000 C   0  0  0  0  0  0  0  0  0  0  0  0
    0.5401   -0.9159    0.0000 H   0  0  0  0  0  0  0  0  0  0  0  0
   -0.2700   -1.0718    0.0000 C   0  0  0  0  0  0  0  0  0  0  0  0
    0.2700   -1.6954    0.0000 N   0  0  0  0  0  0  0  0  0  0  0  0
    0.0000   -2.4750    0.0000 C   0  0  0  0  0  0  0  0  0  0  0  0
    0.5401   -3.0986    0.0000 O   0  0  0  0  0  0  0  0  0  0  0  0
   -0.8101   -2.6309    0.0000 C   0  0  0  0  0  0  0  0  0  0  0  0
   -1.1602   -3.3780    0.0000 C   0  0  0  0  0  0  0  0  0  0  0  0
   -0.7616   -4.1003    0.0000 H   0  0  0  0  0  0  0  0  0  0  0  0
   -1.9788   -3.2759    0.0000 N   0  0  0  0  0  0  0  0  0  0  0  0
   -2.5426   -3.8782    0.0000 H   0  0  0  0  0  0  0  0  0  0  0  0
   -2.1348   -2.4658    0.0000 C   0  0  0  0  0  0  0  0  0  0  0  0
   -2.8818   -2.1157    0.0000 H   0  0  0  0  0  0  0  0  0  0  0  0
   -1.4125   -2.0671    0.0000 N   0  0  0  0  0  0  0  0  0  0  0  0
    1.0802   -1.5395    0.0000 C   0  0  0  0  0  0  0  0  0  0  0  0
    1.6203   -2.1632    0.0000 C   0  0  0  0  0  0  0  0  0  0  0  0
    1.3502   -2.9427    0.0000 O   0  0  0  0  0  0  0  0  0  0  0  0
    2.4304   -2.0073    0.0000 N   0  0  0  0  0  0  0  0  0  0  0  0
    2.9705   -2.6309    0.0000 C   0  0  0  0  0  0  0  0  0  0  0  0
    3.7806   -2.4750    0.0000 C   0  0  0  0  0  0  0  0  0  0  0  0
    4.3207   -3.0986    0.0000 C   0  0  0  0  0  0  0  0  0  0  0  0
    5.1308   -2.9427    0.0000 C   0  0  0  0  0  0  0  0  0  0  0  0
    5.4009   -2.1632    0.0000 H   0  0  0  0  0  0  0  0  0  0  0  0
    5.6709   -3.5664    0.0000 C   0  0  0  0  0  0  0  0  0  0  0  0
    6.4811   -3.4105    0.0000 H   0  0  0  0  0  0  0  0  0  0  0  0
    5.4009   -4.3459    0.0000 C   0  0  0  0  0  0  0  0  0  0  0  0
    5.9410   -4.9696    0.0000 H   0  0  0  0  0  0  0  0  0  0  0  0
    4.5908   -4.5018    0.0000 C   0  0  0  0  0  0  0  0  0  0  0  0
    4.3207   -5.2814    0.0000 F   0  0  0  0  0  0  0  0  0  0  0  0
    4.0507   -3.8782    0.0000 C   0  0  0  0  0  0  0  0  0  0  0  0
    3.2405   -4.0341    0.0000 H   0  0  0  0  0  0  0  0  0  0  0  0
    4.3718   -1.8996    0.0000 H   0  0  0  0  0  0  0  0  0  0  0  0
    3.6721   -1.6572    0.0000 H   0  0  0  0  0  0  0  0  0  0  0  0
    2.3793   -3.2063    0.0000 H   0  0  0  0  0  0  0  0  0  0  0  0
    3.0790   -3.4487    0.0000 H   0  0  0  0  0  0  0  0  0  0  0  0
    2.7004   -1.2277    0.0000 H   0  0  0  0  0  0  0  0  0  0  0  0
    1.3502   -0.7600    0.0000 C   0  0  0  0  0  0  0  0  0  0  0  0
    0.8101   -0.1363    0.0000 C   0  0  0  0  0  0  0  0  0  0  0  0
    0.2700    0.4873    0.0000 H   0  0  0  0  0  0  0  0  0  0  0  0
    1.0802    0.6432    0.0000 C   0  0  0  0  0  0  0  0  0  0  0  0
    0.9243    1.4533    0.0000 H   0  0  0  0  0  0  0  0  0  0  0  0
    1.8903    0.7991    0.0000 C   0  0  0  0  0  0  0  0  0  0  0  0
    2.1604    1.5787    0.0000 H   0  0  0  0  0  0  0  0  0  0  0  0
    2.4304    0.1755    0.0000 N   0  0  0  0  0  0  0  0  0  0  0  0
    2.1604   -0.6041    0.0000 C   0  0  0  0  0  0  0  0  0  0  0  0
    1.8903   -1.3836    0.0000 H   0  0  0  0  0  0  0  0  0  0  0  0
    0.8101   -2.3191    0.0000 H   0  0  0  0  0  0  0  0  0  0  0  0
   -1.0802   -1.2277    0.0000 C   0  0  0  0  0  0  0  0  0  0  0  0
   -1.8935   -1.3660    0.0000 H   0  0  0  0  0  0  0  0  0  0  0  0
   -1.6203   -0.6041    0.0000 C   0  0  0  0  0  0  0  0  0  0  0  0
   -2.3983   -0.3298    0.0000 H   0  0  0  0  0  0  0  0  0  0  0  0
   -2.8564    1.4533    0.0000 H   0  0  0  0  0  0  0  0  0  0  0  0
   -3.5106    0.4873    0.0000 H   0  0  0  0  0  0  0  0  0  0  0  0
   -2.5445   -0.1669    0.0000 H   0  0  0  0  0  0  0  0  0  0  0  0
  1  2  1  0  0  0  0
  2  3  1  0  0  0  0
  3  4  2  0  0  0  0
  4  5  1  0  0  0  0
  4  6  1  0  0  0  0
  6  7  1  0  0  0  0
  6  8  2  0  0  0  0
  8  9  1  0  0  0  0
  9 10  1  0  0  0  0
 10 11  2  0  0  0  0
 10 12  1  0  0  0  0
 12 13  2  0  0  0  0
 13 14  1  0  0  0  0
 13 15  1  0  0  0  0
 15 16  1  0  0  0  0
 15 17  1  0  0  0  0
 17 18  1  0  0  0  0
 17 19  2  0  0  0  0
 12 19  1  0  0  0  0
  9 20  1  0  0  0  0
 20 21  1  0  0  0  0
 21 22  2  0  0  0  0
 21 23  1  0  0  0  0
 23 24  1  0  0  0  0
 24 25  1  0  0  0  0
 25 26  1  0  0  0  0
 26 27  2  0  0  0  0
 27 28  1  0  0  0  0
 27 29  1  0  0  0  0
 29 30  1  0  0  0  0
 29 31  2  0  0  0  0
 31 32  1  0  0  0  0
 31 33  1  0  0  0  0
 33 34  1  0  0  0  0
 33 35  2  0  0  0  0
 26 35  1  0  0  0  0
 35 36  1  0  0  0  0
 25 37  1  0  0  0  0
 25 38  1  0  0  0  0
 24 39  1  0  0  0  0
 24 40  1  0  0  0  0
 23 41  1  0  0  0  0
 20 42  1  0  0  0  0
 42 43  2  0  0  0  0
 43 44  1  0  0  0  0
 43 45  1  0  0  0  0
 45 46  1  0  0  0  0
 45 47  2  0  0  0  0
 47 48  1  0  0  0  0
 47 49  1  0  0  0  0
 49 50  2  0  0  0  0
 42 50  1  0  0  0  0
 50 51  1  0  0  0  0
 20 52  1  0  0  0  0
  8 53  1  0  0  0  0
 53 54  1  0  0  0  0
 53 55  2  0  0  0  0
  3 55  1  0  0  0  0
 55 56  1  0  0  0  0
  1 57  1  0  0  0  0
  1 58  1  0  0  0  0
  1 59  1  0  0  0  0
M  END
> <Potency>
93.7197064670285

> <pIC50>
4.028169080296473

> <Outcome>
Inactive

> <is_active>
0

$$$$

  Mrv1921 08232120312D          

 64 67  0  0  0  0            999 V2000
   -3.5106    0.4873    0.0000 C   0  0  0  0  0  0  0  0  0  0  0  0
   -2.7004    0.6432    0.0000 S   0  0  0  0  0  0  0  0  0  0  0  0
   -2.5445   -0.1669    0.0000 O   0  0  0  0  0  0  0  0  0  0  0  0
   -2.8564    1.4533    0.0000 O   0  0  0  0  0  0  0  0  0  0  0  0
   -1.8903    0.7991    0.0000 C   0  0  0  0  0  0  0  0  0  0  0  0
   -1.3502    0.1755    0.0000 C   0  0  0  0  0  0  0  0  0  0  0  0
   -0.5401    0.3314    0.0000 C   0  0  0  0  0  0  0  0  0  0  0  0
   -0.2700    1.1109    0.0000 H   0  0  0  0  0  0  0  0  0  0  0  0
    0.0000   -0.2923    0.0000 C   0  0  0  0  0  0  0  0  0  0  0  0
    0.5401   -0.9159    0.0000 H   0  0  0  0  0  0  0  0  0  0  0  0
   -0.2700   -1.0718    0.0000 C   0  0  0  0  0  0  0  0  0  0  0  0
    0.2700   -1.6954    0.0000 N   0  0  0  0  0  0  0  0  0  0  0  0
    0.0000   -2.4750    0.0000 C   0  0  0  0  0  0  0  0  0  0  0  0
    0.5401   -3.0986    0.0000 O   0  0  0  0  0  0  0  0  0  0  0  0
   -0.8101   -2.6309    0.0000 C   0  0  0  0  0  0  0  0  0  0  0  0
   -1.1602   -3.3780    0.0000 C   0  0  0  0  0  0  0  0  0  0  0  0
   -0.7616   -4.1003    0.0000 H   0  0  0  0  0  0  0  0  0  0  0  0
   -1.9788   -3.2759    0.0000 N   0  0  0  0  0  0  0  0  0  0  0  0
   -2.5426   -3.8782    0.0000 H   0  0  0  0  0  0  0  0  0  0  0  0
   -2.1348   -2.4658    0.0000 C   0  0  0  0  0  0  0  0  0  0  0  0
   -2.8818   -2.1157    0.0000 H   0  0  0  0  0  0  0  0  0  0  0  0
   -1.4125   -2.0671    0.0000 N   0  0  0  0  0  0  0  0  0  0  0  0
    1.0802   -1.5395    0.0000 C   0  0  0  0  0  0  0  0  0  0  0  0
    1.6203   -2.1632    0.0000 C   0  0  0  0  0  0  0  0  0  0  0  0
    1.3502   -2.9427    0.0000 O   0  0  0  0  0  0  0  0  0  0  0  0
    2.4304   -2.0073    0.0000 N   0  0  0  0  0  0  0  0  0  0  0  0
    2.9705   -2.6309    0.0000 C   0  0  0  0  0  0  0  0  0  0  0  0
    3.7806   -2.4750    0.0000 C   0  0  0  0  0  0  0  0  0  0  0  0
    4.3207   -3.0986    0.0000 C   0  0  0  0  0  0  0  0  0  0  0  0
    5.1308   -2.9427    0.0000 C   0  0  0  0  0  0  0  0  0  0  0  0
    5.4009   -2.1632    0.0000 H   0  0  0  0  0  0  0  0  0  0  0  0
    5.6709   -3.5664    0.0000 C   0  0  0  0  0  0  0  0  0  0  0  0
    6.4811   -3.4105    0.0000 H   0  0  0  0  0  0  0  0  0  0  0  0
    5.4009   -4.3459    0.0000 C   0  0  0  0  0  0  0  0  0  0  0  0
    5.9410   -4.9696    0.0000 H   0  0  0  0  0  0  0  0  0  0  0  0
    4.5908   -4.5018    0.0000 C   0  0  0  0  0  0  0  0  0  0  0  0
    4.3207   -5.2814    0.0000 F   0  0  0  0  0  0  0  0  0  0  0  0
    4.0507   -3.8782    0.0000 C   0  0  0  0  0  0  0  0  0  0  0  0
    3.2405   -4.0341    0.0000 H   0  0  0  0  0  0  0  0  0  0  0  0
    4.3718   -1.8996    0.0000 H   0  0  0  0  0  0  0  0  0  0  0  0
    3.6721   -1.6572    0.0000 H   0  0  0  0  0  0  0  0  0  0  0  0
    2.3793   -3.2063    0.0000 H   0  0  0  0  0  0  0  0  0  0  0  0
    3.0790   -3.4487    0.0000 H   0  0  0  0  0  0  0  0  0  0  0  0
    2.7004   -1.2277    0.0000 H   0  0  0  0  0  0  0  0  0  0  0  0
    1.3502   -0.7600    0.0000 C   0  0  0  0  0  0  0  0  0  0  0  0
    0.8101   -0.1363    0.0000 C   0  0  0  0  0  0  0  0  0  0  0  0
    0.2700    0.4873    0.0000 H   0  0  0  0  0  0  0  0  0  0  0  0
    1.0802    0.6432    0.0000 C   0  0  0  0  0  0  0  0  0  0  0  0
    0.9243    1.4533    0.0000 H   0  0  0  0  0  0  0  0  0  0  0  0
    1.8903    0.7991    0.0000 C   0  0  0  0  0  0  0  0  0  0  0  0
    2.1604    1.5787    0.0000 H   0  0  0  0  0  0  0  0  0  0  0  0
    2.4304    0.1755    0.0000 N   0  0  0  0  0  0  0  0  0  0  0  0
    2.1604   -0.6041    0.0000 C   0  0  0  0  0  0  0  0  0  0  0  0
    1.8903   -1.3836    0.0000 H   0  0  0  0  0  0  0  0  0  0  0  0
    0.8101   -2.3191    0.0000 H   0  0  0  0  0  0  0  0  0  0  0  0
   -1.0802   -1.2277    0.0000 C   0  0  0  0  0  0  0  0  0  0  0  0
   -1.8935   -1.3660    0.0000 H   0  0  0  0  0  0  0  0  0  0  0  0
   -1.6203   -0.6041    0.0000 C   0  0  0  0  0  0  0  0  0  0  0  0
   -2.3983   -0.3298    0.0000 H   0  0  0  0  0  0  0  0  0  0  0  0
   -1.2991    1.3746    0.0000 H   0  0  0  0  0  0  0  0  0  0  0  0
   -1.9989    1.6169    0.0000 H   0  0  0  0  0  0  0  0  0  0  0  0
   -3.6665    1.2974    0.0000 H   0  0  0  0  0  0  0  0  0  0  0  0
   -4.3207    0.3314    0.0000 H   0  0  0  0  0  0  0  0  0  0  0  0
   -3.3547   -0.3228    0.0000 H   0  0  0  0  0  0  0  0  0  0  0  0
  1  2  1  0  0  0  0
  2  3  2  0  0  0  0
  2  4  2  0  0  0  0
  2  5  1  0  0  0  0
  5  6  1  0  0  0  0
  6  7  2  0  0  0  0
  7  8  1  0  0  0  0
  7  9  1  0  0  0  0
  9 10  1  0  0  0  0
  9 11  2  0  0  0  0
 11 12  1  0  0  0  0
 12 13  1  0  0  0  0
 13 14  2  0  0  0  0
 13 15  1  0  0  0  0
 15 16  2  0  0  0  0
 16 17  1  0  0  0  0
 16 18  1  0  0  0  0
 18 19  1  0  0  0  0
 18 20  1  0  0  0  0
 20 21  1  0  0  0  0
 20 22  2  0  0  0  0
 15 22  1  0  0  0  0
 12 23  1  0  0  0  0
 23 24  1  0  0  0  0
 24 25  2  0  0  0  0
 24 26  1  0  0  0  0
 26 27  1  0  0  0  0
 27 28  1  0  0  0  0
 28 29  1  0  0  0  0
 29 30  2  0  0  0  0
 30 31  1  0  0  0  0
 30 32  1  0  0  0  0
 32 33  1  0  0  0  0
 32 34  2  0  0  0  0
 34 35  1  0  0  0  0
 34 36  1  0  0  0  0
 36 37  1  0  0  0  0
 36 38  2  0  0  0  0
 29 38  1  0  0  0  0
 38 39  1  0  0  0  0
 28 40  1  0  0  0  0
 28 41  1  0  0  0  0
 27 42  1  0  0  0  0
 27 43  1  0  0  0  0
 26 44  1  0  0  0  0
 23 45  1  0  0  0  0
 45 46  2  0  0  0  0
 46 47  1  0  0  0  0
 46 48  1  0  0  0  0
 48 49  1  0  0  0  0
 48 50  2  0  0  0  0
 50 51  1  0  0  0  0
 50 52  1  0  0  0  0
 52 53  2  0  0  0  0
 45 53  1  0  0  0  0
 53 54  1  0  0  0  0
 23 55  1  0  0  0  0
 11 56  1  0  0  0  0
 56 57  1  0  0  0  0
 56 58  2  0  0  0  0
  6 58  1  0  0  0  0
 58 59  1  0  0  0  0
  5 60  1  0  0  0  0
  5 61  1  0  0  0  0
  1 62  1  0  0  0  0
  1 63  1  0  0  0  0
  1 64  1  0  0  0  0
M  END
> <Potency>
41.1150967010396

> <pIC50>
4.385998683960614

> <Outcome>
Inactive

> <is_active>
0

$$$$

  Mrv1921 08232120312D          

 62 65  0  0  0  0            999 V2000
   -3.2405    1.2668    0.0000 C   0  0  0  0  0  0  0  0  0  0  0  0
   -2.7004    0.6432    0.0000 O   0  0  0  0  0  0  0  0  0  0  0  0
   -1.8903    0.7991    0.0000 C   0  0  0  0  0  0  0  0  0  0  0  0
   -1.3502    0.1755    0.0000 C   0  0  0  0  0  0  0  0  0  0  0  0
   -0.5401    0.3314    0.0000 C   0  0  0  0  0  0  0  0  0  0  0  0
   -0.2700    1.1109    0.0000 H   0  0  0  0  0  0  0  0  0  0  0  0
    0.0000   -0.2923    0.0000 C   0  0  0  0  0  0  0  0  0  0  0  0
    0.5401   -0.9159    0.0000 H   0  0  0  0  0  0  0  0  0  0  0  0
   -0.2700   -1.0718    0.0000 C   0  0  0  0  0  0  0  0  0  0  0  0
    0.2700   -1.6954    0.0000 N   0  0  0  0  0  0  0  0  0  0  0  0
    0.0000   -2.4750    0.0000 C   0  0  0  0  0  0  0  0  0  0  0  0
    0.5401   -3.0986    0.0000 O   0  0  0  0  0  0  0  0  0  0  0  0
   -0.8101   -2.6309    0.0000 C   0  0  0  0  0  0  0  0  0  0  0  0
   -1.1602   -3.3780    0.0000 C   0  0  0  0  0  0  0  0  0  0  0  0
   -0.7616   -4.1003    0.0000 H   0  0  0  0  0  0  0  0  0  0  0  0
   -1.9788   -3.2759    0.0000 N   0  0  0  0  0  0  0  0  0  0  0  0
   -2.5426   -3.8782    0.0000 H   0  0  0  0  0  0  0  0  0  0  0  0
   -2.1348   -2.4658    0.0000 C   0  0  0  0  0  0  0  0  0  0  0  0
   -2.8818   -2.1157    0.0000 H   0  0  0  0  0  0  0  0  0  0  0  0
   -1.4125   -2.0671    0.0000 N   0  0  0  0  0  0  0  0  0  0  0  0
    1.0802   -1.5395    0.0000 C   0  0  0  0  0  0  0  0  0  0  0  0
    1.6203   -2.1632    0.0000 C   0  0  0  0  0  0  0  0  0  0  0  0
    1.3502   -2.9427    0.0000 O   0  0  0  0  0  0  0  0  0  0  0  0
    2.4304   -2.0073    0.0000 N   0  0  0  0  0  0  0  0  0  0  0  0
    2.9705   -2.6309    0.0000 C   0  0  0  0  0  0  0  0  0  0  0  0
    3.7806   -2.4750    0.0000 C   0  0  0  0  0  0  0  0  0  0  0  0
    4.3207   -3.0986    0.0000 C   0  0  0  0  0  0  0  0  0  0  0  0
    5.1308   -2.9427    0.0000 C   0  0  0  0  0  0  0  0  0  0  0  0
    5.4009   -2.1632    0.0000 H   0  0  0  0  0  0  0  0  0  0  0  0
    5.6709   -3.5664    0.0000 C   0  0  0  0  0  0  0  0  0  0  0  0
    6.4811   -3.4105    0.0000 H   0  0  0  0  0  0  0  0  0  0  0  0
    5.4009   -4.3459    0.0000 C   0  0  0  0  0  0  0  0  0  0  0  0
    5.9410   -4.9696    0.0000 H   0  0  0  0  0  0  0  0  0  0  0  0
    4.5908   -4.5018    0.0000 C   0  0  0  0  0  0  0  0  0  0  0  0
    4.3207   -5.2814    0.0000 F   0  0  0  0  0  0  0  0  0  0  0  0
    4.0507   -3.8782    0.0000 C   0  0  0  0  0  0  0  0  0  0  0  0
    3.2405   -4.0341    0.0000 H   0  0  0  0  0  0  0  0  0  0  0  0
    4.3718   -1.8996    0.0000 H   0  0  0  0  0  0  0  0  0  0  0  0
    3.6721   -1.6572    0.0000 H   0  0  0  0  0  0  0  0  0  0  0  0
    2.3793   -3.2063    0.0000 H   0  0  0  0  0  0  0  0  0  0  0  0
    3.0790   -3.4487    0.0000 H   0  0  0  0  0  0  0  0  0  0  0  0
    2.7004   -1.2277    0.0000 H   0  0  0  0  0  0  0  0  0  0  0  0
    1.3502   -0.7600    0.0000 C   0  0  0  0  0  0  0  0  0  0  0  0
    0.8101   -0.1363    0.0000 C   0  0  0  0  0  0  0  0  0  0  0  0
    0.2700    0.4873    0.0000 H   0  0  0  0  0  0  0  0  0  0  0  0
    1.0802    0.6432    0.0000 C   0  0  0  0  0  0  0  0  0  0  0  0
    0.9243    1.4533    0.0000 H   0  0  0  0  0  0  0  0  0  0  0  0
    1.8903    0.7991    0.0000 C   0  0  0  0  0  0  0  0  0  0  0  0
    2.1604    1.5787    0.0000 H   0  0  0  0  0  0  0  0  0  0  0  0
    2.4304    0.1755    0.0000 N   0  0  0  0  0  0  0  0  0  0  0  0
    2.1604   -0.6041    0.0000 C   0  0  0  0  0  0  0  0  0  0  0  0
    1.8903   -1.3836    0.0000 H   0  0  0  0  0  0  0  0  0  0  0  0
    0.8101   -2.3191    0.0000 H   0  0  0  0  0  0  0  0  0  0  0  0
   -1.0802   -1.2277    0.0000 C   0  0  0  0  0  0  0  0  0  0  0  0
   -1.8935   -1.3660    0.0000 H   0  0  0  0  0  0  0  0  0  0  0  0
   -1.6203   -0.6041    0.0000 C   0  0  0  0  0  0  0  0  0  0  0  0
   -2.3983   -0.3298    0.0000 H   0  0  0  0  0  0  0  0  0  0  0  0
   -1.2991    1.3746    0.0000 H   0  0  0  0  0  0  0  0  0  0  0  0
   -1.9989    1.6169    0.0000 H   0  0  0  0  0  0  0  0  0  0  0  0
   -2.6169    1.8069    0.0000 H   0  0  0  0  0  0  0  0  0  0  0  0
   -3.7806    1.8905    0.0000 H   0  0  0  0  0  0  0  0  0  0  0  0
   -3.8642    0.7268    0.0000 H   0  0  0  0  0  0  0  0  0  0  0  0
  1  2  1  0  0  0  0
  2  3  1  0  0  0  0
  3  4  1  0  0  0  0
  4  5  2  0  0  0  0
  5  6  1  0  0  0  0
  5  7  1  0  0  0  0
  7  8  1  0  0  0  0
  7  9  2  0  0  0  0
  9 10  1  0  0  0  0
 10 11  1  0  0  0  0
 11 12  2  0  0  0  0
 11 13  1  0  0  0  0
 13 14  2  0  0  0  0
 14 15  1  0  0  0  0
 14 16  1  0  0  0  0
 16 17  1  0  0  0  0
 16 18  1  0  0  0  0
 18 19  1  0  0  0  0
 18 20  2  0  0  0  0
 13 20  1  0  0  0  0
 10 21  1  0  0  0  0
 21 22  1  0  0  0  0
 22 23  2  0  0  0  0
 22 24  1  0  0  0  0
 24 25  1  0  0  0  0
 25 26  1  0  0  0  0
 26 27  1  0  0  0  0
 27 28  2  0  0  0  0
 28 29  1  0  0  0  0
 28 30  1  0  0  0  0
 30 31  1  0  0  0  0
 30 32  2  0  0  0  0
 32 33  1  0  0  0  0
 32 34  1  0  0  0  0
 34 35  1  0  0  0  0
 34 36  2  0  0  0  0
 27 36  1  0  0  0  0
 36 37  1  0  0  0  0
 26 38  1  0  0  0  0
 26 39  1  0  0  0  0
 25 40  1  0  0  0  0
 25 41  1  0  0  0  0
 24 42  1  0  0  0  0
 21 43  1  0  0  0  0
 43 44  2  0  0  0  0
 44 45  1  0  0  0  0
 44 46  1  0  0  0  0
 46 47  1  0  0  0  0
 46 48  2  0  0  0  0
 48 49  1  0  0  0  0
 48 50  1  0  0  0  0
 50 51  2  0  0  0  0
 43 51  1  0  0  0  0
 51 52  1  0  0  0  0
 21 53  1  0  0  0  0
  9 54  1  0  0  0  0
 54 55  1  0  0  0  0
 54 56  2  0  0  0  0
  4 56  1  0  0  0  0
 56 57  1  0  0  0  0
  3 58  1  0  0  0  0
  3 59  1  0  0  0  0
  1 60  1  0  0  0  0
  1 61  1  0  0  0  0
  1 62  1  0  0  0  0
M  END
> <Potency>
62.8710673345657

> <pIC50>
4.201549166760078

> <Outcome>
Inactive

> <is_active>
0

$$$$

  Mrv1921 08232120312D          

 62 65  0  0  0  0            999 V2000
    0.1259    0.4825    0.0000 C   0  0  0  0  0  0  0  0  0  0  0  0
   -0.6928    0.5846    0.0000 O   0  0  0  0  0  0  0  0  0  0  0  0
   -1.1905   -0.0734    0.0000 C   0  0  0  0  0  0  0  0  0  0  0  0
   -2.0092    0.0287    0.0000 C   0  0  0  0  0  0  0  0  0  0  0  0
   -2.3301    0.7887    0.0000 H   0  0  0  0  0  0  0  0  0  0  0  0
   -2.5069   -0.6292    0.0000 C   0  0  0  0  0  0  0  0  0  0  0  0
   -3.3255   -0.5272    0.0000 H   0  0  0  0  0  0  0  0  0  0  0  0
   -2.1859   -1.3893    0.0000 C   0  0  0  0  0  0  0  0  0  0  0  0
   -2.6837   -2.0472    0.0000 H   0  0  0  0  0  0  0  0  0  0  0  0
   -1.3673   -1.4913    0.0000 C   0  0  0  0  0  0  0  0  0  0  0  0
   -0.5960   -1.7842    0.0000 H   0  0  0  0  0  0  0  0  0  0  0  0
   -0.8696   -0.8334    0.0000 C   0  0  0  0  0  0  0  0  0  0  0  0
   -0.0509   -0.9354    0.0000 C   0  0  0  0  0  0  0  0  0  0  0  0
    0.2700   -1.6954    0.0000 N   0  0  0  0  0  0  0  0  0  0  0  0
    0.0000   -2.4750    0.0000 C   0  0  0  0  0  0  0  0  0  0  0  0
    0.5401   -3.0986    0.0000 O   0  0  0  0  0  0  0  0  0  0  0  0
   -0.8101   -2.6309    0.0000 C   0  0  0  0  0  0  0  0  0  0  0  0
   -1.1602   -3.3780    0.0000 C   0  0  0  0  0  0  0  0  0  0  0  0
   -0.7616   -4.1003    0.0000 H   0  0  0  0  0  0  0  0  0  0  0  0
   -1.9788   -3.2759    0.0000 N   0  0  0  0  0  0  0  0  0  0  0  0
   -2.5426   -3.8782    0.0000 H   0  0  0  0  0  0  0  0  0  0  0  0
   -2.1348   -2.4658    0.0000 C   0  0  0  0  0  0  0  0  0  0  0  0
   -2.8360   -2.9003    0.0000 H   0  0  0  0  0  0  0  0  0  0  0  0
   -1.4125   -2.0671    0.0000 N   0  0  0  0  0  0  0  0  0  0  0  0
    1.0802   -1.5395    0.0000 C   0  0  0  0  0  0  0  0  0  0  0  0
    1.6203   -2.1632    0.0000 C   0  0  0  0  0  0  0  0  0  0  0  0
    1.3502   -2.9427    0.0000 O   0  0  0  0  0  0  0  0  0  0  0  0
    2.4304   -2.0073    0.0000 N   0  0  0  0  0  0  0  0  0  0  0  0
    2.9705   -2.6309    0.0000 C   0  0  0  0  0  0  0  0  0  0  0  0
    3.7806   -2.4750    0.0000 C   0  0  0  0  0  0  0  0  0  0  0  0
    4.3207   -3.0986    0.0000 C   0  0  0  0  0  0  0  0  0  0  0  0
    5.1308   -2.9427    0.0000 C   0  0  0  0  0  0  0  0  0  0  0  0
    5.4009   -2.1632    0.0000 H   0  0  0  0  0  0  0  0  0  0  0  0
    5.6709   -3.5664    0.0000 C   0  0  0  0  0  0  0  0  0  0  0  0
    6.4811   -3.4105    0.0000 H   0  0  0  0  0  0  0  0  0  0  0  0
    5.4009   -4.3459    0.0000 C   0  0  0  0  0  0  0  0  0  0  0  0
    5.9410   -4.9696    0.0000 H   0  0  0  0  0  0  0  0  0  0  0  0
    4.5908   -4.5018    0.0000 C   0  0  0  0  0  0  0  0  0  0  0  0
    4.3207   -5.2814    0.0000 F   0  0  0  0  0  0  0  0  0  0  0  0
    4.0507   -3.8782    0.0000 C   0  0  0  0  0  0  0  0  0  0  0  0
    3.2405   -4.0341    0.0000 H   0  0  0  0  0  0  0  0  0  0  0  0
    4.3718   -1.8996    0.0000 H   0  0  0  0  0  0  0  0  0  0  0  0
    3.6721   -1.6572    0.0000 H   0  0  0  0  0  0  0  0  0  0  0  0
    2.3793   -3.2063    0.0000 H   0  0  0  0  0  0  0  0  0  0  0  0
    3.0790   -3.4487    0.0000 H   0  0  0  0  0  0  0  0  0  0  0  0
    2.7004   -1.2277    0.0000 H   0  0  0  0  0  0  0  0  0  0  0  0
    1.3502   -0.7600    0.0000 C   0  0  0  0  0  0  0  0  0  0  0  0
    0.8101   -0.1363    0.0000 C   0  0  0  0  0  0  0  0  0  0  0  0
    0.0338   -0.4156    0.0000 H   0  0  0  0  0  0  0  0  0  0  0  0
    1.0802    0.6432    0.0000 C   0  0  0  0  0  0  0  0  0  0  0  0
    1.3181    1.4331    0.0000 H   0  0  0  0  0  0  0  0  0  0  0  0
    1.8903    0.7991    0.0000 C   0  0  0  0  0  0  0  0  0  0  0  0
    2.5084    1.3456    0.0000 H   0  0  0  0  0  0  0  0  0  0  0  0
    2.4304    0.1755    0.0000 N   0  0  0  0  0  0  0  0  0  0  0  0
    2.1604   -0.6041    0.0000 C   0  0  0  0  0  0  0  0  0  0  0  0
    1.8903   -1.3836    0.0000 H   0  0  0  0  0  0  0  0  0  0  0  0
    0.8101   -2.3191    0.0000 H   0  0  0  0  0  0  0  0  0  0  0  0
    0.7317   -0.6742    0.0000 H   0  0  0  0  0  0  0  0  0  0  0  0
   -0.5486   -1.5934    0.0000 H   0  0  0  0  0  0  0  0  0  0  0  0
    0.4875    1.2241    0.0000 H   0  0  0  0  0  0  0  0  0  0  0  0
   -0.2671    1.2079    0.0000 H   0  0  0  0  0  0  0  0  0  0  0  0
   -0.2178   -0.2675    0.0000 H   0  0  0  0  0  0  0  0  0  0  0  0
  1  2  1  0  0  0  0
  2  3  1  0  0  0  0
  3  4  2  0  0  0  0
  4  5  1  0  0  0  0
  4  6  1  0  0  0  0
  6  7  1  0  0  0  0
  6  8  2  0  0  0  0
  8  9  1  0  0  0  0
  8 10  1  0  0  0  0
 10 11  1  0  0  0  0
 10 12  2  0  0  0  0
  3 12  1  0  0  0  0
 12 13  1  0  0  0  0
 13 14  1  0  0  0  0
 14 15  1  0  0  0  0
 15 16  2  0  0  0  0
 15 17  1  0  0  0  0
 17 18  2  0  0  0  0
 18 19  1  0  0  0  0
 18 20  1  0  0  0  0
 20 21  1  0  0  0  0
 20 22  1  0  0  0  0
 22 23  1  0  0  0  0
 22 24  2  0  0  0  0
 17 24  1  0  0  0  0
 14 25  1  0  0  0  0
 25 26  1  0  0  0  0
 26 27  2  0  0  0  0
 26 28  1  0  0  0  0
 28 29  1  0  0  0  0
 29 30  1  0  0  0  0
 30 31  1  0  0  0  0
 31 32  2  0  0  0  0
 32 33  1  0  0  0  0
 32 34  1  0  0  0  0
 34 35  1  0  0  0  0
 34 36  2  0  0  0  0
 36 37  1  0  0  0  0
 36 38  1  0  0  0  0
 38 39  1  0  0  0  0
 38 40  2  0  0  0  0
 31 40  1  0  0  0  0
 40 41  1  0  0  0  0
 30 42  1  0  0  0  0
 30 43  1  0  0  0  0
 29 44  1  0  0  0  0
 29 45  1  0  0  0  0
 28 46  1  0  0  0  0
 25 47  1  0  0  0  0
 47 48  2  0  0  0  0
 48 49  1  0  0  0  0
 48 50  1  0  0  0  0
 50 51  1  0  0  0  0
 50 52  2  0  0  0  0
 52 53  1  0  0  0  0
 52 54  1  0  0  0  0
 54 55  2  0  0  0  0
 47 55  1  0  0  0  0
 55 56  1  0  0  0  0
 25 57  1  0  0  0  0
 13 58  1  0  0  0  0
 13 59  1  0  0  0  0
  1 60  1  0  0  0  0
  1 61  1  0  0  0  0
  1 62  1  0  0  0  0
M  END
> <Potency>
99.0

> <pIC50>
4.00436480540245

> <Outcome>
Inactive

> <is_active>
0

$$$$

  Mrv1921 08232120312D          

 61 64  0  0  0  0            999 V2000
   -3.2405    1.2668    0.0000 C   0  0  0  0  0  0  0  0  0  0  0  0
   -2.7004    0.6432    0.0000 C   0  0  0  0  0  0  0  0  0  0  0  0
   -1.8903    0.7991    0.0000 O   0  0  0  0  0  0  0  0  0  0  0  0
   -1.3502    0.1755    0.0000 C   0  0  0  0  0  0  0  0  0  0  0  0
   -0.5401    0.3314    0.0000 C   0  0  0  0  0  0  0  0  0  0  0  0
   -0.2700    1.1109    0.0000 H   0  0  0  0  0  0  0  0  0  0  0  0
    0.0000   -0.2923    0.0000 C   0  0  0  0  0  0  0  0  0  0  0  0
    0.5401   -0.9159    0.0000 H   0  0  0  0  0  0  0  0  0  0  0  0
   -0.2700   -1.0718    0.0000 C   0  0  0  0  0  0  0  0  0  0  0  0
    0.2700   -1.6954    0.0000 N   0  0  0  0  0  0  0  0  0  0  0  0
    0.0000   -2.4750    0.0000 C   0  0  0  0  0  0  0  0  0  0  0  0
    0.5401   -3.0986    0.0000 O   0  0  0  0  0  0  0  0  0  0  0  0
   -0.8101   -2.6309    0.0000 C   0  0  0  0  0  0  0  0  0  0  0  0
   -1.1602   -3.3780    0.0000 C   0  0  0  0  0  0  0  0  0  0  0  0
   -0.7616   -4.1003    0.0000 H   0  0  0  0  0  0  0  0  0  0  0  0
   -1.9788   -3.2759    0.0000 N   0  0  0  0  0  0  0  0  0  0  0  0
   -2.5426   -3.8782    0.0000 H   0  0  0  0  0  0  0  0  0  0  0  0
   -2.1348   -2.4658    0.0000 C   0  0  0  0  0  0  0  0  0  0  0  0
   -2.8818   -2.1157    0.0000 H   0  0  0  0  0  0  0  0  0  0  0  0
   -1.4125   -2.0671    0.0000 N   0  0  0  0  0  0  0  0  0  0  0  0
    1.0802   -1.5395    0.0000 C   0  0  0  0  0  0  0  0  0  0  0  0
    1.6203   -2.1632    0.0000 C   0  0  0  0  0  0  0  0  0  0  0  0
    1.3502   -2.9427    0.0000 O   0  0  0  0  0  0  0  0  0  0  0  0
    2.4304   -2.0073    0.0000 N   0  0  0  0  0  0  0  0  0  0  0  0
    2.9705   -2.6309    0.0000 C   0  0  0  0  0  0  0  0  0  0  0  0
    3.7806   -2.4750    0.0000 C   0  0  0  0  0  0  0  0  0  0  0  0
    4.3207   -3.0986    0.0000 C   0  0  0  0  0  0  0  0  0  0  0  0
    5.1308   -2.9427    0.0000 C   0  0  0  0  0  0  0  0  0  0  0  0
    5.4009   -2.1632    0.0000 H   0  0  0  0  0  0  0  0  0  0  0  0
    5.6709   -3.5664    0.0000 C   0  0  0  0  0  0  0  0  0  0  0  0
    6.4811   -3.4105    0.0000 H   0  0  0  0  0  0  0  0  0  0  0  0
    5.4009   -4.3459    0.0000 C   0  0  0  0  0  0  0  0  0  0  0  0
    5.9410   -4.9696    0.0000 H   0  0  0  0  0  0  0  0  0  0  0  0
    4.5908   -4.5018    0.0000 C   0  0  0  0  0  0  0  0  0  0  0  0
    4.3207   -5.2814    0.0000 F   0  0  0  0  0  0  0  0  0  0  0  0
    4.0507   -3.8782    0.0000 C   0  0  0  0  0  0  0  0  0  0  0  0
    3.2405   -4.0341    0.0000 H   0  0  0  0  0  0  0  0  0  0  0  0
    4.3718   -1.8996    0.0000 H   0  0  0  0  0  0  0  0  0  0  0  0
    3.6721   -1.6572    0.0000 H   0  0  0  0  0  0  0  0  0  0  0  0
    2.3793   -3.2063    0.0000 H   0  0  0  0  0  0  0  0  0  0  0  0
    3.0790   -3.4487    0.0000 H   0  0  0  0  0  0  0  0  0  0  0  0
    2.7004   -1.2277    0.0000 H   0  0  0  0  0  0  0  0  0  0  0  0
    1.3502   -0.7600    0.0000 C   0  0  0  0  0  0  0  0  0  0  0  0
    0.8101   -0.1363    0.0000 C   0  0  0  0  0  0  0  0  0  0  0  0
    0.2700    0.4873    0.0000 H   0  0  0  0  0  0  0  0  0  0  0  0
    1.0802    0.6432    0.0000 C   0  0  0  0  0  0  0  0  0  0  0  0
    0.9243    1.4533    0.0000 H   0  0  0  0  0  0  0  0  0  0  0  0
    1.8903    0.7991    0.0000 C   0  0  0  0  0  0  0  0  0  0  0  0
    2.1604    1.5787    0.0000 H   0  0  0  0  0  0  0  0  0  0  0  0
    2.4304    0.1755    0.0000 N   0  0  0  0  0  0  0  0  0  0  0  0
    2.1604   -0.6041    0.0000 C   0  0  0  0  0  0  0  0  0  0  0  0
    1.8903   -1.3836    0.0000 H   0  0  0  0  0  0  0  0  0  0  0  0
    0.8101   -2.3191    0.0000 H   0  0  0  0  0  0  0  0  0  0  0  0
   -1.0802   -1.2277    0.0000 C   0  0  0  0  0  0  0  0  0  0  0  0
   -1.8935   -1.3660    0.0000 H   0  0  0  0  0  0  0  0  0  0  0  0
   -1.6203   -0.6041    0.0000 N   0  0  0  0  0  0  0  0  0  0  0  0
   -3.2916    0.0678    0.0000 H   0  0  0  0  0  0  0  0  0  0  0  0
   -2.5919   -0.1746    0.0000 H   0  0  0  0  0  0  0  0  0  0  0  0
   -2.6169    1.8069    0.0000 H   0  0  0  0  0  0  0  0  0  0  0  0
   -3.7806    1.8905    0.0000 H   0  0  0  0  0  0  0  0  0  0  0  0
   -3.8642    0.7268    0.0000 H   0  0  0  0  0  0  0  0  0  0  0  0
  1  2  1  0  0  0  0
  2  3  1  0  0  0  0
  3  4  1  0  0  0  0
  4  5  2  0  0  0  0
  5  6  1  0  0  0  0
  5  7  1  0  0  0  0
  7  8  1  0  0  0  0
  7  9  2  0  0  0  0
  9 10  1  0  0  0  0
 10 11  1  0  0  0  0
 11 12  2  0  0  0  0
 11 13  1  0  0  0  0
 13 14  2  0  0  0  0
 14 15  1  0  0  0  0
 14 16  1  0  0  0  0
 16 17  1  0  0  0  0
 16 18  1  0  0  0  0
 18 19  1  0  0  0  0
 18 20  2  0  0  0  0
 13 20  1  0  0  0  0
 10 21  1  0  0  0  0
 21 22  1  0  0  0  0
 22 23  2  0  0  0  0
 22 24  1  0  0  0  0
 24 25  1  0  0  0  0
 25 26  1  0  0  0  0
 26 27  1  0  0  0  0
 27 28  2  0  0  0  0
 28 29  1  0  0  0  0
 28 30  1  0  0  0  0
 30 31  1  0  0  0  0
 30 32  2  0  0  0  0
 32 33  1  0  0  0  0
 32 34  1  0  0  0  0
 34 35  1  0  0  0  0
 34 36  2  0  0  0  0
 27 36  1  0  0  0  0
 36 37  1  0  0  0  0
 26 38  1  0  0  0  0
 26 39  1  0  0  0  0
 25 40  1  0  0  0  0
 25 41  1  0  0  0  0
 24 42  1  0  0  0  0
 21 43  1  0  0  0  0
 43 44  2  0  0  0  0
 44 45  1  0  0  0  0
 44 46  1  0  0  0  0
 46 47  1  0  0  0  0
 46 48  2  0  0  0  0
 48 49  1  0  0  0  0
 48 50  1  0  0  0  0
 50 51  2  0  0  0  0
 43 51  1  0  0  0  0
 51 52  1  0  0  0  0
 21 53  1  0  0  0  0
  9 54  1  0  0  0  0
 54 55  1  0  0  0  0
 54 56  2  0  0  0  0
  4 56  1  0  0  0  0
  2 57  1  0  0  0  0
  2 58  1  0  0  0  0
  1 59  1  0  0  0  0
  1 60  1  0  0  0  0
  1 61  1  0  0  0  0
M  END
> <Potency>
99.0

> <pIC50>
4.00436480540245

> <Outcome>
Inactive

> <is_active>
0

$$$$

  Mrv1921 08232120312D          

 70 73  0  0  0  0            999 V2000
   -1.5415   -4.8137    0.0000 C   0  0  0  0  0  0  0  0  0  0  0  0
   -1.0015   -4.1900    0.0000 O   0  0  0  0  0  0  0  0  0  0  0  0
   -0.1913   -4.3459    0.0000 C   0  0  0  0  0  0  0  0  0  0  0  0
    0.3488   -3.7223    0.0000 C   0  0  0  0  0  0  0  0  0  0  0  0
   -0.4646   -3.5840    0.0000 H   0  0  0  0  0  0  0  0  0  0  0  0
    1.1589   -3.8782    0.0000 C   0  0  0  0  0  0  0  0  0  0  0  0
    1.6990   -3.2546    0.0000 N   0  0  0  0  0  0  0  0  0  0  0  0
    1.4289   -2.4750    0.0000 C   0  0  0  0  0  0  0  0  0  0  0  0
    1.9690   -1.8514    0.0000 O   0  0  0  0  0  0  0  0  0  0  0  0
    0.6188   -2.3191    0.0000 C   0  0  0  0  0  0  0  0  0  0  0  0
    0.2688   -1.5720    0.0000 C   0  0  0  0  0  0  0  0  0  0  0  0
    0.6674   -0.8497    0.0000 H   0  0  0  0  0  0  0  0  0  0  0  0
   -0.5499   -1.6741    0.0000 N   0  0  0  0  0  0  0  0  0  0  0  0
   -1.1137   -1.0718    0.0000 H   0  0  0  0  0  0  0  0  0  0  0  0
   -0.7058   -2.4842    0.0000 C   0  0  0  0  0  0  0  0  0  0  0  0
   -1.4529   -2.8343    0.0000 H   0  0  0  0  0  0  0  0  0  0  0  0
    0.0165   -2.8829    0.0000 N   0  0  0  0  0  0  0  0  0  0  0  0
    2.5091   -3.4105    0.0000 C   0  0  0  0  0  0  0  0  0  0  0  0
    3.0492   -2.7868    0.0000 C   0  0  0  0  0  0  0  0  0  0  0  0
    2.7792   -2.0073    0.0000 O   0  0  0  0  0  0  0  0  0  0  0  0
    3.8593   -2.9427    0.0000 N   0  0  0  0  0  0  0  0  0  0  0  0
    4.3994   -2.3191    0.0000 C   0  0  0  0  0  0  0  0  0  0  0  0
    5.2096   -2.4750    0.0000 C   0  0  0  0  0  0  0  0  0  0  0  0
    5.7497   -1.8514    0.0000 C   0  0  0  0  0  0  0  0  0  0  0  0
    5.4796   -1.0718    0.0000 C   0  0  0  0  0  0  0  0  0  0  0  0
    4.6695   -0.9159    0.0000 H   0  0  0  0  0  0  0  0  0  0  0  0
    6.0197   -0.4482    0.0000 C   0  0  0  0  0  0  0  0  0  0  0  0
    5.7497    0.3314    0.0000 H   0  0  0  0  0  0  0  0  0  0  0  0
    6.8298   -0.6041    0.0000 C   0  0  0  0  0  0  0  0  0  0  0  0
    7.3699    0.0196    0.0000 H   0  0  0  0  0  0  0  0  0  0  0  0
    7.0999   -1.3836    0.0000 C   0  0  0  0  0  0  0  0  0  0  0  0
    7.9100   -1.5395    0.0000 F   0  0  0  0  0  0  0  0  0  0  0  0
    6.5598   -2.0073    0.0000 C   0  0  0  0  0  0  0  0  0  0  0  0
    6.8298   -2.7868    0.0000 H   0  0  0  0  0  0  0  0  0  0  0  0
    5.1010   -3.2928    0.0000 H   0  0  0  0  0  0  0  0  0  0  0  0
    5.8007   -3.0504    0.0000 H   0  0  0  0  0  0  0  0  0  0  0  0
    4.5080   -1.5013    0.0000 H   0  0  0  0  0  0  0  0  0  0  0  0
    3.8083   -1.7437    0.0000 H   0  0  0  0  0  0  0  0  0  0  0  0
    4.1294   -3.7223    0.0000 H   0  0  0  0  0  0  0  0  0  0  0  0
    2.7792   -4.1900    0.0000 C   0  0  0  0  0  0  0  0  0  0  0  0
    3.5893   -4.3459    0.0000 C   0  0  0  0  0  0  0  0  0  0  0  0
    3.3193   -3.5664    0.0000 H   0  0  0  0  0  0  0  0  0  0  0  0
    3.8593   -5.1255    0.0000 C   0  0  0  0  0  0  0  0  0  0  0  0
    4.6695   -5.2814    0.0000 H   0  0  0  0  0  0  0  0  0  0  0  0
    3.3193   -5.7491    0.0000 C   0  0  0  0  0  0  0  0  0  0  0  0
    3.5893   -6.5287    0.0000 H   0  0  0  0  0  0  0  0  0  0  0  0
    2.5091   -5.5932    0.0000 N   0  0  0  0  0  0  0  0  0  0  0  0
    2.2391   -4.8137    0.0000 C   0  0  0  0  0  0  0  0  0  0  0  0
    1.9690   -4.0341    0.0000 H   0  0  0  0  0  0  0  0  0  0  0  0
    2.2391   -2.6309    0.0000 H   0  0  0  0  0  0  0  0  0  0  0  0
    1.4289   -4.6577    0.0000 C   0  0  0  0  0  0  0  0  0  0  0  0
    1.6990   -5.4373    0.0000 H   0  0  0  0  0  0  0  0  0  0  0  0
    0.8889   -5.2814    0.0000 C   0  0  0  0  0  0  0  0  0  0  0  0
    0.7329   -6.0915    0.0000 H   0  0  0  0  0  0  0  0  0  0  0  0
    0.0787   -5.1255    0.0000 C   0  0  0  0  0  0  0  0  0  0  0  0
   -0.4614   -5.7491    0.0000 S   0  0  0  0  0  0  0  0  0  0  0  0
   -1.0850   -5.2090    0.0000 O   0  0  0  0  0  0  0  0  0  0  0  0
    0.1623   -6.2892    0.0000 O   0  0  0  0  0  0  0  0  0  0  0  0
   -1.0015   -6.3728    0.0000 N   0  0  0  0  0  0  0  0  0  0  0  0
   -0.7314   -7.1523    0.0000 C   0  0  0  0  0  0  0  0  0  0  0  0
   -1.5110   -7.4224    0.0000 H   0  0  0  0  0  0  0  0  0  0  0  0
   -0.4614   -7.9319    0.0000 H   0  0  0  0  0  0  0  0  0  0  0  0
    0.0481   -6.8823    0.0000 H   0  0  0  0  0  0  0  0  0  0  0  0
   -1.8116   -6.2168    0.0000 C   0  0  0  0  0  0  0  0  0  0  0  0
   -2.5537   -5.8565    0.0000 H   0  0  0  0  0  0  0  0  0  0  0  0
   -2.4518   -6.7372    0.0000 H   0  0  0  0  0  0  0  0  0  0  0  0
   -1.6105   -7.0170    0.0000 H   0  0  0  0  0  0  0  0  0  0  0  0
   -1.9110   -4.0760    0.0000 H   0  0  0  0  0  0  0  0  0  0  0  0
   -2.3644   -4.8727    0.0000 H   0  0  0  0  0  0  0  0  0  0  0  0
   -1.8019   -5.5965    0.0000 H   0  0  0  0  0  0  0  0  0  0  0  0
  1  2  1  0  0  0  0
  2  3  1  0  0  0  0
  3  4  2  0  0  0  0
  4  5  1  0  0  0  0
  4  6  1  0  0  0  0
  6  7  1  0  0  0  0
  7  8  1  0  0  0  0
  8  9  2  0  0  0  0
  8 10  1  0  0  0  0
 10 11  2  0  0  0  0
 11 12  1  0  0  0  0
 11 13  1  0  0  0  0
 13 14  1  0  0  0  0
 13 15  1  0  0  0  0
 15 16  1  0  0  0  0
 15 17  2  0  0  0  0
 10 17  1  0  0  0  0
  7 18  1  0  0  0  0
 18 19  1  0  0  0  0
 19 20  2  0  0  0  0
 19 21  1  0  0  0  0
 21 22  1  0  0  0  0
 22 23  1  0  0  0  0
 23 24  1  0  0  0  0
 24 25  2  0  0  0  0
 25 26  1  0  0  0  0
 25 27  1  0  0  0  0
 27 28  1  0  0  0  0
 27 29  2  0  0  0  0
 29 30  1  0  0  0  0
 29 31  1  0  0  0  0
 31 32  1  0  0  0  0
 31 33  2  0  0  0  0
 24 33  1  0  0  0  0
 33 34  1  0  0  0  0
 23 35  1  0  0  0  0
 23 36  1  0  0  0  0
 22 37  1  0  0  0  0
 22 38  1  0  0  0  0
 21 39  1  0  0  0  0
 18 40  1  0  0  0  0
 40 41  2  0  0  0  0
 41 42  1  0  0  0  0
 41 43  1  0  0  0  0
 43 44  1  0  0  0  0
 43 45  2  0  0  0  0
 45 46  1  0  0  0  0
 45 47  1  0  0  0  0
 47 48  2  0  0  0  0
 40 48  1  0  0  0  0
 48 49  1  0  0  0  0
 18 50  1  0  0  0  0
  6 51  2  0  0  0  0
 51 52  1  0  0  0  0
 51 53  1  0  0  0  0
 53 54  1  0  0  0  0
 53 55  2  0  0  0  0
  3 55  1  0  0  0  0
 55 56  1  0  0  0  0
 56 57  2  0  0  0  0
 56 58  2  0  0  0  0
 56 59  1  0  0  0  0
 59 60  1  0  0  0  0
 60 61  1  0  0  0  0
 60 62  1  0  0  0  0
 60 63  1  0  0  0  0
 59 64  1  0  0  0  0
 64 65  1  0  0  0  0
 64 66  1  0  0  0  0
 64 67  1  0  0  0  0
  1 68  1  0  0  0  0
  1 69  1  0  0  0  0
  1 70  1  0  0  0  0
M  END
> <Potency>
99.0

> <pIC50>
4.00436480540245

> <Outcome>
Inactive

> <is_active>
0

$$$$

  Mrv1921 08232120312D          

 66 70  0  0  0  0            999 V2000
    5.2883   -3.6573    0.0000 O   0  0  0  0  0  0  0  0  0  0  0  0
    5.0182   -4.4368    0.0000 C   0  0  0  0  0  0  0  0  0  0  0  0
    4.2081   -4.5927    0.0000 N   0  0  0  0  0  0  0  0  0  0  0  0
    3.6680   -3.9691    0.0000 C   0  0  0  0  0  0  0  0  0  0  0  0
    2.8579   -4.1250    0.0000 C   0  0  0  0  0  0  0  0  0  0  0  0
    2.3178   -3.5014    0.0000 C   0  0  0  0  0  0  0  0  0  0  0  0
    1.5077   -3.6573    0.0000 C   0  0  0  0  0  0  0  0  0  0  0  0
    1.2376   -4.4368    0.0000 H   0  0  0  0  0  0  0  0  0  0  0  0
    0.9676   -3.0336    0.0000 C   0  0  0  0  0  0  0  0  0  0  0  0
    0.1574   -3.1895    0.0000 H   0  0  0  0  0  0  0  0  0  0  0  0
    1.2376   -2.2541    0.0000 C   0  0  0  0  0  0  0  0  0  0  0  0
    0.6975   -1.6304    0.0000 H   0  0  0  0  0  0  0  0  0  0  0  0
    2.0477   -2.0982    0.0000 C   0  0  0  0  0  0  0  0  0  0  0  0
    2.3178   -1.3186    0.0000 F   0  0  0  0  0  0  0  0  0  0  0  0
    2.5878   -2.7218    0.0000 C   0  0  0  0  0  0  0  0  0  0  0  0
    3.3980   -2.5659    0.0000 H   0  0  0  0  0  0  0  0  0  0  0  0
    2.2667   -4.7004    0.0000 H   0  0  0  0  0  0  0  0  0  0  0  0
    2.9664   -4.9428    0.0000 H   0  0  0  0  0  0  0  0  0  0  0  0
    4.2592   -3.3937    0.0000 H   0  0  0  0  0  0  0  0  0  0  0  0
    3.5595   -3.1513    0.0000 H   0  0  0  0  0  0  0  0  0  0  0  0
    3.9381   -5.3723    0.0000 H   0  0  0  0  0  0  0  0  0  0  0  0
    5.5583   -5.0605    0.0000 C   0  0  0  0  0  0  0  0  0  0  0  0
    5.2883   -5.8400    0.0000 C   0  0  0  0  0  0  0  0  0  0  0  0
    5.8284   -6.4637    0.0000 C   0  0  0  0  0  0  0  0  0  0  0  0
    6.0984   -5.6841    0.0000 H   0  0  0  0  0  0  0  0  0  0  0  0
    5.5583   -7.2432    0.0000 C   0  0  0  0  0  0  0  0  0  0  0  0
    6.0984   -7.8668    0.0000 H   0  0  0  0  0  0  0  0  0  0  0  0
    4.7482   -7.3991    0.0000 C   0  0  0  0  0  0  0  0  0  0  0  0
    4.4782   -8.1787    0.0000 H   0  0  0  0  0  0  0  0  0  0  0  0
    4.2081   -6.7755    0.0000 N   0  0  0  0  0  0  0  0  0  0  0  0
    4.4782   -5.9959    0.0000 C   0  0  0  0  0  0  0  0  0  0  0  0
    3.6680   -6.1518    0.0000 H   0  0  0  0  0  0  0  0  0  0  0  0
    6.3685   -4.9046    0.0000 N   0  0  0  0  0  0  0  0  0  0  0  0
    6.6385   -4.1250    0.0000 C   0  0  0  0  0  0  0  0  0  0  0  0
    6.0984   -3.5014    0.0000 O   0  0  0  0  0  0  0  0  0  0  0  0
    7.4486   -3.9691    0.0000 C   0  0  0  0  0  0  0  0  0  0  0  0
    7.7987   -3.2220    0.0000 C   0  0  0  0  0  0  0  0  0  0  0  0
    7.4001   -2.4997    0.0000 H   0  0  0  0  0  0  0  0  0  0  0  0
    8.6174   -3.3241    0.0000 N   0  0  0  0  0  0  0  0  0  0  0  0
    9.1811   -2.7218    0.0000 H   0  0  0  0  0  0  0  0  0  0  0  0
    8.7733   -4.1342    0.0000 C   0  0  0  0  0  0  0  0  0  0  0  0
    9.5203   -4.4843    0.0000 H   0  0  0  0  0  0  0  0  0  0  0  0
    8.0510   -4.5329    0.0000 N   0  0  0  0  0  0  0  0  0  0  0  0
    6.9086   -5.5282    0.0000 C   0  0  0  0  0  0  0  0  0  0  0  0
    7.7187   -5.3723    0.0000 C   0  0  0  0  0  0  0  0  0  0  0  0
    7.4486   -6.1518    0.0000 H   0  0  0  0  0  0  0  0  0  0  0  0
    8.5320   -5.2340    0.0000 H   0  0  0  0  0  0  0  0  0  0  0  0
    8.2588   -5.9959    0.0000 C   0  0  0  0  0  0  0  0  0  0  0  0
    8.7966   -6.6215    0.0000 H   0  0  0  0  0  0  0  0  0  0  0  0
    9.0700   -5.8459    0.0000 H   0  0  0  0  0  0  0  0  0  0  0  0
    7.9887   -6.7755    0.0000 C   0  0  0  0  0  0  0  0  0  0  0  0
    8.3874   -7.4978    0.0000 O   0  0  0  0  0  0  0  0  0  0  0  0
    7.8236   -8.1001    0.0000 C   0  0  0  0  0  0  0  0  0  0  0  0
    7.0765   -7.7500    0.0000 C   0  0  0  0  0  0  0  0  0  0  0  0
    6.2516   -7.7629    0.0000 H   0  0  0  0  0  0  0  0  0  0  0  0
    6.6259   -8.4411    0.0000 H   0  0  0  0  0  0  0  0  0  0  0  0
    7.1786   -6.9314    0.0000 C   0  0  0  0  0  0  0  0  0  0  0  0
    6.3892   -7.1711    0.0000 H   0  0  0  0  0  0  0  0  0  0  0  0
    6.6385   -6.3077    0.0000 C   0  0  0  0  0  0  0  0  0  0  0  0
    6.4826   -5.4976    0.0000 H   0  0  0  0  0  0  0  0  0  0  0  0
    6.0292   -6.8640    0.0000 H   0  0  0  0  0  0  0  0  0  0  0  0
    7.5809   -8.8886    0.0000 H   0  0  0  0  0  0  0  0  0  0  0  0
    8.3416   -8.7422    0.0000 H   0  0  0  0  0  0  0  0  0  0  0  0
    7.6387   -7.5225    0.0000 H   0  0  0  0  0  0  0  0  0  0  0  0
    7.1786   -4.7486    0.0000 H   0  0  0  0  0  0  0  0  0  0  0  0
    4.7482   -5.2164    0.0000 H   0  0  0  0  0  0  0  0  0  0  0  0
  1  2  2  0  0  0  0
  2  3  1  0  0  0  0
  3  4  1  0  0  0  0
  4  5  1  0  0  0  0
  5  6  1  0  0  0  0
  6  7  2  0  0  0  0
  7  8  1  0  0  0  0
  7  9  1  0  0  0  0
  9 10  1  0  0  0  0
  9 11  2  0  0  0  0
 11 12  1  0  0  0  0
 11 13  1  0  0  0  0
 13 14  1  0  0  0  0
 13 15  2  0  0  0  0
  6 15  1  0  0  0  0
 15 16  1  0  0  0  0
  5 17  1  0  0  0  0
  5 18  1  0  0  0  0
  4 19  1  0  0  0  0
  4 20  1  0  0  0  0
  3 21  1  0  0  0  0
  2 22  1  0  0  0  0
 22 23  1  0  0  0  0
 23 24  2  0  0  0  0
 24 25  1  0  0  0  0
 24 26  1  0  0  0  0
 26 27  1  0  0  0  0
 26 28  2  0  0  0  0
 28 29  1  0  0  0  0
 28 30  1  0  0  0  0
 30 31  2  0  0  0  0
 23 31  1  0  0  0  0
 31 32  1  0  0  0  0
 22 33  1  0  0  0  0
 33 34  1  0  0  0  0
 34 35  2  0  0  0  0
 34 36  1  0  0  0  0
 36 37  2  0  0  0  0
 37 38  1  0  0  0  0
 37 39  1  0  0  0  0
 39 40  1  0  0  0  0
 39 41  1  0  0  0  0
 41 42  1  0  0  0  0
 41 43  2  0  0  0  0
 36 43  1  0  0  0  0
 33 44  1  0  0  0  0
 44 45  1  0  0  0  0
 45 46  1  0  0  0  0
 45 47  1  0  0  0  0
 45 48  1  0  0  0  0
 48 49  1  0  0  0  0
 48 50  1  0  0  0  0
 48 51  1  0  0  0  0
 51 52  1  0  0  0  0
 52 53  1  0  0  0  0
 53 54  1  0  0  0  0
 54 55  1  0  0  0  0
 54 56  1  0  0  0  0
 54 57  1  0  0  0  0
 51 57  1  0  0  0  0
 57 58  1  0  0  0  0
 57 59  1  0  0  0  0
 44 59  1  0  0  0  0
 59 60  1  0  0  0  0
 59 61  1  0  0  0  0
 53 62  1  0  0  0  0
 53 63  1  0  0  0  0
 51 64  1  0  0  0  0
 44 65  1  0  0  0  0
 22 66  1  0  0  0  0
M  END
> <Potency>
99.0

> <pIC50>
4.00436480540245

> <Outcome>
Inactive

> <is_active>
0

$$$$

  Mrv1921 08232120312D          

 66 70  0  0  0  0            999 V2000
    8.5629   -1.8085    0.0000 O   0  0  0  0  0  0  0  0  0  0  0  0
    8.2928   -2.5881    0.0000 C   0  0  0  0  0  0  0  0  0  0  0  0
    7.4827   -2.7440    0.0000 N   0  0  0  0  0  0  0  0  0  0  0  0
    6.9426   -2.1203    0.0000 C   0  0  0  0  0  0  0  0  0  0  0  0
    6.1325   -2.2762    0.0000 C   0  0  0  0  0  0  0  0  0  0  0  0
    5.5924   -1.6526    0.0000 C   0  0  0  0  0  0  0  0  0  0  0  0
    4.7823   -1.8085    0.0000 C   0  0  0  0  0  0  0  0  0  0  0  0
    4.5122   -2.5881    0.0000 H   0  0  0  0  0  0  0  0  0  0  0  0
    4.2422   -1.1849    0.0000 C   0  0  0  0  0  0  0  0  0  0  0  0
    3.4320   -1.3408    0.0000 H   0  0  0  0  0  0  0  0  0  0  0  0
    4.5122   -0.4053    0.0000 C   0  0  0  0  0  0  0  0  0  0  0  0
    3.9721    0.2183    0.0000 H   0  0  0  0  0  0  0  0  0  0  0  0
    5.3223   -0.2494    0.0000 C   0  0  0  0  0  0  0  0  0  0  0  0
    5.5924    0.5301    0.0000 F   0  0  0  0  0  0  0  0  0  0  0  0
    5.8624   -0.8730    0.0000 C   0  0  0  0  0  0  0  0  0  0  0  0
    6.6726   -0.7171    0.0000 H   0  0  0  0  0  0  0  0  0  0  0  0
    5.5413   -2.8517    0.0000 H   0  0  0  0  0  0  0  0  0  0  0  0
    6.2410   -3.0941    0.0000 H   0  0  0  0  0  0  0  0  0  0  0  0
    7.5338   -1.5449    0.0000 H   0  0  0  0  0  0  0  0  0  0  0  0
    6.8341   -1.3025    0.0000 H   0  0  0  0  0  0  0  0  0  0  0  0
    7.2127   -3.5235    0.0000 H   0  0  0  0  0  0  0  0  0  0  0  0
    8.8329   -3.2117    0.0000 C   0  0  0  0  0  0  0  0  0  0  0  0
    8.5629   -3.9913    0.0000 C   0  0  0  0  0  0  0  0  0  0  0  0
    9.1030   -4.6149    0.0000 C   0  0  0  0  0  0  0  0  0  0  0  0
    9.3730   -3.8353    0.0000 H   0  0  0  0  0  0  0  0  0  0  0  0
    8.8329   -5.3944    0.0000 C   0  0  0  0  0  0  0  0  0  0  0  0
    9.3730   -6.0181    0.0000 H   0  0  0  0  0  0  0  0  0  0  0  0
    8.0228   -5.5504    0.0000 C   0  0  0  0  0  0  0  0  0  0  0  0
    7.7527   -6.3299    0.0000 H   0  0  0  0  0  0  0  0  0  0  0  0
    7.4827   -4.9267    0.0000 N   0  0  0  0  0  0  0  0  0  0  0  0
    7.7527   -4.1472    0.0000 C   0  0  0  0  0  0  0  0  0  0  0  0
    6.9426   -4.3031    0.0000 H   0  0  0  0  0  0  0  0  0  0  0  0
    9.6431   -3.0558    0.0000 N   0  0  0  0  0  0  0  0  0  0  0  0
    9.9131   -2.2762    0.0000 C   0  0  0  0  0  0  0  0  0  0  0  0
    9.3730   -1.6526    0.0000 O   0  0  0  0  0  0  0  0  0  0  0  0
   10.7232   -2.1203    0.0000 C   0  0  0  0  0  0  0  0  0  0  0  0
   11.0733   -1.3733    0.0000 C   0  0  0  0  0  0  0  0  0  0  0  0
   10.6747   -0.6510    0.0000 H   0  0  0  0  0  0  0  0  0  0  0  0
   11.8920   -1.4753    0.0000 N   0  0  0  0  0  0  0  0  0  0  0  0
   12.4557   -0.8730    0.0000 H   0  0  0  0  0  0  0  0  0  0  0  0
   12.0479   -2.2855    0.0000 C   0  0  0  0  0  0  0  0  0  0  0  0
   12.7949   -2.6355    0.0000 H   0  0  0  0  0  0  0  0  0  0  0  0
   11.3256   -2.6841    0.0000 N   0  0  0  0  0  0  0  0  0  0  0  0
   10.1832   -3.6794    0.0000 C   0  0  0  0  0  0  0  0  0  0  0  0
   10.9933   -3.5235    0.0000 C   0  0  0  0  0  0  0  0  0  0  0  0
   10.7232   -4.3031    0.0000 H   0  0  0  0  0  0  0  0  0  0  0  0
   11.8066   -3.3852    0.0000 H   0  0  0  0  0  0  0  0  0  0  0  0
   11.5334   -4.1472    0.0000 C   0  0  0  0  0  0  0  0  0  0  0  0
   12.0712   -4.7728    0.0000 H   0  0  0  0  0  0  0  0  0  0  0  0
   12.3446   -3.9971    0.0000 H   0  0  0  0  0  0  0  0  0  0  0  0
   11.2633   -4.9267    0.0000 C   0  0  0  0  0  0  0  0  0  0  0  0
   12.0862   -4.9858    0.0000 C   0  0  0  0  0  0  0  0  0  0  0  0
   12.8567   -5.2807    0.0000 H   0  0  0  0  0  0  0  0  0  0  0  0
   12.8571   -4.6919    0.0000 H   0  0  0  0  0  0  0  0  0  0  0  0
   12.0271   -5.8087    0.0000 C   0  0  0  0  0  0  0  0  0  0  0  0
   12.1830   -6.6188    0.0000 H   0  0  0  0  0  0  0  0  0  0  0  0
   12.8067   -6.0787    0.0000 H   0  0  0  0  0  0  0  0  0  0  0  0
   11.2042   -5.7496    0.0000 O   0  0  0  0  0  0  0  0  0  0  0  0
   10.4532   -5.0826    0.0000 C   0  0  0  0  0  0  0  0  0  0  0  0
    9.8620   -5.6581    0.0000 H   0  0  0  0  0  0  0  0  0  0  0  0
   10.5617   -5.9005    0.0000 H   0  0  0  0  0  0  0  0  0  0  0  0
    9.9131   -4.4590    0.0000 C   0  0  0  0  0  0  0  0  0  0  0  0
    9.3927   -5.0992    0.0000 H   0  0  0  0  0  0  0  0  0  0  0  0
    9.9260   -5.2839    0.0000 H   0  0  0  0  0  0  0  0  0  0  0  0
   10.4532   -2.8999    0.0000 H   0  0  0  0  0  0  0  0  0  0  0  0
    8.0228   -3.3676    0.0000 H   0  0  0  0  0  0  0  0  0  0  0  0
  1  2  2  0  0  0  0
  2  3  1  0  0  0  0
  3  4  1  0  0  0  0
  4  5  1  0  0  0  0
  5  6  1  0  0  0  0
  6  7  2  0  0  0  0
  7  8  1  0  0  0  0
  7  9  1  0  0  0  0
  9 10  1  0  0  0  0
  9 11  2  0  0  0  0
 11 12  1  0  0  0  0
 11 13  1  0  0  0  0
 13 14  1  0  0  0  0
 13 15  2  0  0  0  0
  6 15  1  0  0  0  0
 15 16  1  0  0  0  0
  5 17  1  0  0  0  0
  5 18  1  0  0  0  0
  4 19  1  0  0  0  0
  4 20  1  0  0  0  0
  3 21  1  0  0  0  0
  2 22  1  0  0  0  0
 22 23  1  0  0  0  0
 23 24  2  0  0  0  0
 24 25  1  0  0  0  0
 24 26  1  0  0  0  0
 26 27  1  0  0  0  0
 26 28  2  0  0  0  0
 28 29  1  0  0  0  0
 28 30  1  0  0  0  0
 30 31  2  0  0  0  0
 23 31  1  0  0  0  0
 31 32  1  0  0  0  0
 22 33  1  0  0  0  0
 33 34  1  0  0  0  0
 34 35  2  0  0  0  0
 34 36  1  0  0  0  0
 36 37  2  0  0  0  0
 37 38  1  0  0  0  0
 37 39  1  0  0  0  0
 39 40  1  0  0  0  0
 39 41  1  0  0  0  0
 41 42  1  0  0  0  0
 41 43  2  0  0  0  0
 36 43  1  0  0  0  0
 33 44  1  0  0  0  0
 44 45  1  0  0  0  0
 45 46  1  0  0  0  0
 45 47  1  0  0  0  0
 45 48  1  0  0  0  0
 48 49  1  0  0  0  0
 48 50  1  0  0  0  0
 48 51  1  0  0  0  0
 51 52  1  0  0  0  0
 52 53  1  0  0  0  0
 52 54  1  0  0  0  0
 52 55  1  0  0  0  0
 55 56  1  0  0  0  0
 55 57  1  0  0  0  0
 55 58  1  0  0  0  0
 51 58  1  0  0  0  0
 51 59  1  0  0  0  0
 59 60  1  0  0  0  0
 59 61  1  0  0  0  0
 59 62  1  0  0  0  0
 44 62  1  0  0  0  0
 62 63  1  0  0  0  0
 62 64  1  0  0  0  0
 44 65  1  0  0  0  0
 22 66  1  0  0  0  0
M  END
> <Potency>
99.0

> <pIC50>
4.00436480540245

> <Outcome>
Inactive

> <is_active>
0

$$$$

  Mrv1921 08232120312D          

 57 61  0  0  0  0            999 V2000
    5.2883   -3.6573    0.0000 O   0  0  0  0  0  0  0  0  0  0  0  0
    5.0182   -4.4368    0.0000 C   0  0  0  0  0  0  0  0  0  0  0  0
    4.2081   -4.5927    0.0000 N   0  0  0  0  0  0  0  0  0  0  0  0
    3.6680   -3.9691    0.0000 C   0  0  0  0  0  0  0  0  0  0  0  0
    2.8579   -4.1250    0.0000 C   0  0  0  0  0  0  0  0  0  0  0  0
    2.3178   -3.5014    0.0000 C   0  0  0  0  0  0  0  0  0  0  0  0
    1.5077   -3.6573    0.0000 C   0  0  0  0  0  0  0  0  0  0  0  0
    1.2376   -4.4368    0.0000 H   0  0  0  0  0  0  0  0  0  0  0  0
    0.9676   -3.0336    0.0000 C   0  0  0  0  0  0  0  0  0  0  0  0
    0.1574   -3.1895    0.0000 H   0  0  0  0  0  0  0  0  0  0  0  0
    1.2376   -2.2541    0.0000 C   0  0  0  0  0  0  0  0  0  0  0  0
    0.6975   -1.6304    0.0000 H   0  0  0  0  0  0  0  0  0  0  0  0
    2.0477   -2.0982    0.0000 C   0  0  0  0  0  0  0  0  0  0  0  0
    2.3178   -1.3186    0.0000 F   0  0  0  0  0  0  0  0  0  0  0  0
    2.5878   -2.7218    0.0000 C   0  0  0  0  0  0  0  0  0  0  0  0
    3.3980   -2.5659    0.0000 H   0  0  0  0  0  0  0  0  0  0  0  0
    2.2667   -4.7004    0.0000 H   0  0  0  0  0  0  0  0  0  0  0  0
    2.9664   -4.9428    0.0000 H   0  0  0  0  0  0  0  0  0  0  0  0
    4.2592   -3.3937    0.0000 H   0  0  0  0  0  0  0  0  0  0  0  0
    3.5595   -3.1513    0.0000 H   0  0  0  0  0  0  0  0  0  0  0  0
    3.9381   -5.3723    0.0000 H   0  0  0  0  0  0  0  0  0  0  0  0
    5.5583   -5.0605    0.0000 C   0  0  0  0  0  0  0  0  0  0  0  0
    5.2883   -5.8400    0.0000 C   0  0  0  0  0  0  0  0  0  0  0  0
    5.8284   -6.4637    0.0000 C   0  0  0  0  0  0  0  0  0  0  0  0
    6.0984   -5.6841    0.0000 H   0  0  0  0  0  0  0  0  0  0  0  0
    5.5583   -7.2432    0.0000 C   0  0  0  0  0  0  0  0  0  0  0  0
    6.0984   -7.8668    0.0000 H   0  0  0  0  0  0  0  0  0  0  0  0
    4.7482   -7.3991    0.0000 C   0  0  0  0  0  0  0  0  0  0  0  0
    4.4782   -8.1787    0.0000 H   0  0  0  0  0  0  0  0  0  0  0  0
    4.2081   -6.7755    0.0000 N   0  0  0  0  0  0  0  0  0  0  0  0
    4.4782   -5.9959    0.0000 C   0  0  0  0  0  0  0  0  0  0  0  0
    3.6680   -6.1518    0.0000 H   0  0  0  0  0  0  0  0  0  0  0  0
    6.3685   -4.9046    0.0000 N   0  0  0  0  0  0  0  0  0  0  0  0
    6.6385   -4.1250    0.0000 C   0  0  0  0  0  0  0  0  0  0  0  0
    6.0984   -3.5014    0.0000 O   0  0  0  0  0  0  0  0  0  0  0  0
    7.4486   -3.9691    0.0000 C   0  0  0  0  0  0  0  0  0  0  0  0
    7.7987   -3.2220    0.0000 C   0  0  0  0  0  0  0  0  0  0  0  0
    7.4001   -2.4997    0.0000 H   0  0  0  0  0  0  0  0  0  0  0  0
    8.6174   -3.3241    0.0000 N   0  0  0  0  0  0  0  0  0  0  0  0
    9.1811   -2.7218    0.0000 H   0  0  0  0  0  0  0  0  0  0  0  0
    8.7733   -4.1342    0.0000 C   0  0  0  0  0  0  0  0  0  0  0  0
    9.5203   -4.4843    0.0000 H   0  0  0  0  0  0  0  0  0  0  0  0
    8.0510   -4.5329    0.0000 N   0  0  0  0  0  0  0  0  0  0  0  0
    6.9086   -5.5282    0.0000 C   0  0  0  0  0  0  0  0  0  0  0  0
    7.7187   -5.3723    0.0000 C   0  0  0  0  0  0  0  0  0  0  0  0
    7.1923   -4.7371    0.0000 H   0  0  0  0  0  0  0  0  0  0  0  0
    8.2588   -5.9959    0.0000 C   0  0  0  0  0  0  0  0  0  0  0  0
    9.0689   -5.8400    0.0000 H   0  0  0  0  0  0  0  0  0  0  0  0
    7.9887   -6.7755    0.0000 C   0  0  0  0  0  0  0  0  0  0  0  0
    8.3874   -7.4978    0.0000 N   0  0  0  0  0  0  0  0  0  0  0  0
    7.8236   -8.1001    0.0000 C   0  0  0  0  0  0  0  0  0  0  0  0
    7.0765   -7.7500    0.0000 S   0  0  0  0  0  0  0  0  0  0  0  0
    7.1786   -6.9314    0.0000 C   0  0  0  0  0  0  0  0  0  0  0  0
    6.6385   -6.3077    0.0000 C   0  0  0  0  0  0  0  0  0  0  0  0
    7.4486   -6.1518    0.0000 H   0  0  0  0  0  0  0  0  0  0  0  0
    7.9795   -8.9102    0.0000 H   0  0  0  0  0  0  0  0  0  0  0  0
    4.7482   -5.2164    0.0000 H   0  0  0  0  0  0  0  0  0  0  0  0
  1  2  2  0  0  0  0
  2  3  1  0  0  0  0
  3  4  1  0  0  0  0
  4  5  1  0  0  0  0
  5  6  1  0  0  0  0
  6  7  2  0  0  0  0
  7  8  1  0  0  0  0
  7  9  1  0  0  0  0
  9 10  1  0  0  0  0
  9 11  2  0  0  0  0
 11 12  1  0  0  0  0
 11 13  1  0  0  0  0
 13 14  1  0  0  0  0
 13 15  2  0  0  0  0
  6 15  1  0  0  0  0
 15 16  1  0  0  0  0
  5 17  1  0  0  0  0
  5 18  1  0  0  0  0
  4 19  1  0  0  0  0
  4 20  1  0  0  0  0
  3 21  1  0  0  0  0
  2 22  1  0  0  0  0
 22 23  1  0  0  0  0
 23 24  2  0  0  0  0
 24 25  1  0  0  0  0
 24 26  1  0  0  0  0
 26 27  1  0  0  0  0
 26 28  2  0  0  0  0
 28 29  1  0  0  0  0
 28 30  1  0  0  0  0
 30 31  2  0  0  0  0
 23 31  1  0  0  0  0
 31 32  1  0  0  0  0
 22 33  1  0  0  0  0
 33 34  1  0  0  0  0
 34 35  2  0  0  0  0
 34 36  1  0  0  0  0
 36 37  2  0  0  0  0
 37 38  1  0  0  0  0
 37 39  1  0  0  0  0
 39 40  1  0  0  0  0
 39 41  1  0  0  0  0
 41 42  1  0  0  0  0
 41 43  2  0  0  0  0
 36 43  1  0  0  0  0
 33 44  1  0  0  0  0
 44 45  2  0  0  0  0
 45 46  1  0  0  0  0
 45 47  1  0  0  0  0
 47 48  1  0  0  0  0
 47 49  2  0  0  0  0
 49 50  1  0  0  0  0
 50 51  2  0  0  0  0
 51 52  1  0  0  0  0
 52 53  1  0  0  0  0
 49 53  1  0  0  0  0
 53 54  2  0  0  0  0
 44 54  1  0  0  0  0
 54 55  1  0  0  0  0
 51 56  1  0  0  0  0
 22 57  1  0  0  0  0
M  END
> <Potency>
99.0

> <pIC50>
4.00436480540245

> <Outcome>
Inactive

> <is_active>
0

$$$$

  Mrv1921 08232120312D          

 63 67  0  0  0  0            999 V2000
   -2.5709   -1.7052    0.0000 O   0  0  0  0  0  0  0  0  0  0  0  0
   -2.8409   -0.9257    0.0000 C   0  0  0  0  0  0  0  0  0  0  0  0
   -3.6511   -0.7698    0.0000 N   0  0  0  0  0  0  0  0  0  0  0  0
   -4.1912   -1.3934    0.0000 C   0  0  0  0  0  0  0  0  0  0  0  0
   -5.0013   -1.2375    0.0000 C   0  0  0  0  0  0  0  0  0  0  0  0
   -5.5414   -1.8611    0.0000 C   0  0  0  0  0  0  0  0  0  0  0  0
   -5.2713   -2.6407    0.0000 C   0  0  0  0  0  0  0  0  0  0  0  0
   -4.4612   -2.7966    0.0000 H   0  0  0  0  0  0  0  0  0  0  0  0
   -5.8114   -3.2643    0.0000 C   0  0  0  0  0  0  0  0  0  0  0  0
   -5.5414   -4.0439    0.0000 H   0  0  0  0  0  0  0  0  0  0  0  0
   -6.6216   -3.1084    0.0000 C   0  0  0  0  0  0  0  0  0  0  0  0
   -7.1617   -3.7321    0.0000 H   0  0  0  0  0  0  0  0  0  0  0  0
   -6.8916   -2.3289    0.0000 C   0  0  0  0  0  0  0  0  0  0  0  0
   -7.7017   -2.1730    0.0000 F   0  0  0  0  0  0  0  0  0  0  0  0
   -6.3515   -1.7052    0.0000 C   0  0  0  0  0  0  0  0  0  0  0  0
   -6.6216   -0.9257    0.0000 H   0  0  0  0  0  0  0  0  0  0  0  0
   -4.8928   -0.4197    0.0000 H   0  0  0  0  0  0  0  0  0  0  0  0
   -5.5925   -0.6621    0.0000 H   0  0  0  0  0  0  0  0  0  0  0  0
   -4.2997   -2.2112    0.0000 H   0  0  0  0  0  0  0  0  0  0  0  0
   -3.6000   -1.9688    0.0000 H   0  0  0  0  0  0  0  0  0  0  0  0
   -3.9211    0.0098    0.0000 H   0  0  0  0  0  0  0  0  0  0  0  0
   -2.3009   -0.3020    0.0000 C   0  0  0  0  0  0  0  0  0  0  0  0
   -2.5709    0.4775    0.0000 C   0  0  0  0  0  0  0  0  0  0  0  0
   -3.3810    0.6334    0.0000 C   0  0  0  0  0  0  0  0  0  0  0  0
   -4.1912    0.7893    0.0000 H   0  0  0  0  0  0  0  0  0  0  0  0
   -3.6511    1.4130    0.0000 C   0  0  0  0  0  0  0  0  0  0  0  0
   -4.2747    1.9531    0.0000 H   0  0  0  0  0  0  0  0  0  0  0  0
   -3.1110    2.0366    0.0000 C   0  0  0  0  0  0  0  0  0  0  0  0
   -3.3810    2.8162    0.0000 H   0  0  0  0  0  0  0  0  0  0  0  0
   -2.3009    1.8807    0.0000 N   0  0  0  0  0  0  0  0  0  0  0  0
   -2.0308    1.1012    0.0000 C   0  0  0  0  0  0  0  0  0  0  0  0
   -1.7608    0.3216    0.0000 H   0  0  0  0  0  0  0  0  0  0  0  0
   -1.4907   -0.4579    0.0000 N   0  0  0  0  0  0  0  0  0  0  0  0
   -1.2207   -1.2375    0.0000 C   0  0  0  0  0  0  0  0  0  0  0  0
   -1.7608   -1.8611    0.0000 O   0  0  0  0  0  0  0  0  0  0  0  0
   -0.4105   -1.3934    0.0000 C   0  0  0  0  0  0  0  0  0  0  0  0
   -0.0605   -2.1405    0.0000 C   0  0  0  0  0  0  0  0  0  0  0  0
   -0.4591   -2.8628    0.0000 H   0  0  0  0  0  0  0  0  0  0  0  0
    0.7582   -2.0384    0.0000 N   0  0  0  0  0  0  0  0  0  0  0  0
    1.3219   -2.6407    0.0000 H   0  0  0  0  0  0  0  0  0  0  0  0
    0.9141   -1.2283    0.0000 C   0  0  0  0  0  0  0  0  0  0  0  0
    1.6611   -0.8782    0.0000 H   0  0  0  0  0  0  0  0  0  0  0  0
    0.1918   -0.8296    0.0000 N   0  0  0  0  0  0  0  0  0  0  0  0
   -0.9506    0.1657    0.0000 C   0  0  0  0  0  0  0  0  0  0  0  0
   -0.1405    0.0098    0.0000 C   0  0  0  0  0  0  0  0  0  0  0  0
   -0.6669   -0.6254    0.0000 H   0  0  0  0  0  0  0  0  0  0  0  0
    0.3996    0.6334    0.0000 C   0  0  0  0  0  0  0  0  0  0  0  0
    1.2097    0.4775    0.0000 H   0  0  0  0  0  0  0  0  0  0  0  0
    0.1296    1.4130    0.0000 C   0  0  0  0  0  0  0  0  0  0  0  0
   -0.6806    1.5689    0.0000 C   0  0  0  0  0  0  0  0  0  0  0  0
   -0.9506    2.3484    0.0000 C   0  0  0  0  0  0  0  0  0  0  0  0
   -0.4105    2.9721    0.0000 O   0  0  0  0  0  0  0  0  0  0  0  0
    0.3996    2.8162    0.0000 C   0  0  0  0  0  0  0  0  0  0  0  0
    0.6696    2.0366    0.0000 C   0  0  0  0  0  0  0  0  0  0  0  0
    1.3236    1.5337    0.0000 H   0  0  0  0  0  0  0  0  0  0  0  0
    1.4636    2.2609    0.0000 H   0  0  0  0  0  0  0  0  0  0  0  0
    1.1621    3.1311    0.0000 H   0  0  0  0  0  0  0  0  0  0  0  0
    0.6023    3.6159    0.0000 H   0  0  0  0  0  0  0  0  0  0  0  0
   -1.6046    2.8514    0.0000 H   0  0  0  0  0  0  0  0  0  0  0  0
   -1.7446    2.1242    0.0000 H   0  0  0  0  0  0  0  0  0  0  0  0
   -1.2207    0.9452    0.0000 C   0  0  0  0  0  0  0  0  0  0  0  0
   -1.4907    1.7248    0.0000 H   0  0  0  0  0  0  0  0  0  0  0  0
   -3.1110   -0.1461    0.0000 H   0  0  0  0  0  0  0  0  0  0  0  0
  1  2  2  0  0  0  0
  2  3  1  0  0  0  0
  3  4  1  0  0  0  0
  4  5  1  0  0  0  0
  5  6  1  0  0  0  0
  6  7  2  0  0  0  0
  7  8  1  0  0  0  0
  7  9  1  0  0  0  0
  9 10  1  0  0  0  0
  9 11  2  0  0  0  0
 11 12  1  0  0  0  0
 11 13  1  0  0  0  0
 13 14  1  0  0  0  0
 13 15  2  0  0  0  0
  6 15  1  0  0  0  0
 15 16  1  0  0  0  0
  5 17  1  0  0  0  0
  5 18  1  0  0  0  0
  4 19  1  0  0  0  0
  4 20  1  0  0  0  0
  3 21  1  0  0  0  0
  2 22  1  0  0  0  0
 22 23  1  0  0  0  0
 23 24  2  0  0  0  0
 24 25  1  0  0  0  0
 24 26  1  0  0  0  0
 26 27  1  0  0  0  0
 26 28  2  0  0  0  0
 28 29  1  0  0  0  0
 28 30  1  0  0  0  0
 30 31  2  0  0  0  0
 23 31  1  0  0  0  0
 31 32  1  0  0  0  0
 22 33  1  0  0  0  0
 33 34  1  0  0  0  0
 34 35  2  0  0  0  0
 34 36  1  0  0  0  0
 36 37  2  0  0  0  0
 37 38  1  0  0  0  0
 37 39  1  0  0  0  0
 39 40  1  0  0  0  0
 39 41  1  0  0  0  0
 41 42  1  0  0  0  0
 41 43  2  0  0  0  0
 36 43  1  0  0  0  0
 33 44  1  0  0  0  0
 44 45  2  0  0  0  0
 45 46  1  0  0  0  0
 45 47  1  0  0  0  0
 47 48  1  0  0  0  0
 47 49  2  0  0  0  0
 49 50  1  0  0  0  0
 50 51  1  0  0  0  0
 51 52  1  0  0  0  0
 52 53  1  0  0  0  0
 53 54  1  0  0  0  0
 49 54  1  0  0  0  0
 54 55  1  0  0  0  0
 54 56  1  0  0  0  0
 53 57  1  0  0  0  0
 53 58  1  0  0  0  0
 51 59  1  0  0  0  0
 51 60  1  0  0  0  0
 50 61  2  0  0  0  0
 44 61  1  0  0  0  0
 61 62  1  0  0  0  0
 22 63  1  0  0  0  0
M  END
> <Potency>
99.0

> <pIC50>
4.00436480540245

> <Outcome>
Inactive

> <is_active>
0

$$$$

  Mrv1921 08232120312D          

 61 65  0  0  0  0            999 V2000
   -3.2820    5.5373    0.0000 C   0  0  0  0  0  0  0  0  0  0  0  0
   -2.4633    5.4353    0.0000 N   0  0  0  0  0  0  0  0  0  0  0  0
   -1.8995    6.0376    0.0000 N   0  0  0  0  0  0  0  0  0  0  0  0
   -1.1525    5.6875    0.0000 C   0  0  0  0  0  0  0  0  0  0  0  0
   -0.4302    6.0862    0.0000 H   0  0  0  0  0  0  0  0  0  0  0  0
   -1.2546    4.8689    0.0000 C   0  0  0  0  0  0  0  0  0  0  0  0
   -0.7145    4.2452    0.0000 C   0  0  0  0  0  0  0  0  0  0  0  0
   -0.9845    3.4657    0.0000 C   0  0  0  0  0  0  0  0  0  0  0  0
   -0.4444    2.8421    0.0000 N   0  0  0  0  0  0  0  0  0  0  0  0
   -0.7145    2.0625    0.0000 C   0  0  0  0  0  0  0  0  0  0  0  0
   -0.1744    1.4389    0.0000 O   0  0  0  0  0  0  0  0  0  0  0  0
   -1.5246    1.9066    0.0000 C   0  0  0  0  0  0  0  0  0  0  0  0
   -1.8747    1.1595    0.0000 C   0  0  0  0  0  0  0  0  0  0  0  0
   -1.4760    0.4372    0.0000 H   0  0  0  0  0  0  0  0  0  0  0  0
   -2.6933    1.2616    0.0000 N   0  0  0  0  0  0  0  0  0  0  0  0
   -3.2571    0.6593    0.0000 H   0  0  0  0  0  0  0  0  0  0  0  0
   -2.8492    2.0717    0.0000 C   0  0  0  0  0  0  0  0  0  0  0  0
   -3.5963    2.4218    0.0000 H   0  0  0  0  0  0  0  0  0  0  0  0
   -2.1269    2.4704    0.0000 N   0  0  0  0  0  0  0  0  0  0  0  0
    0.3657    2.9980    0.0000 C   0  0  0  0  0  0  0  0  0  0  0  0
    0.9058    2.3743    0.0000 C   0  0  0  0  0  0  0  0  0  0  0  0
    0.6358    1.5948    0.0000 O   0  0  0  0  0  0  0  0  0  0  0  0
    1.7159    2.5302    0.0000 N   0  0  0  0  0  0  0  0  0  0  0  0
    2.2560    1.9066    0.0000 C   0  0  0  0  0  0  0  0  0  0  0  0
    3.0662    2.0625    0.0000 C   0  0  0  0  0  0  0  0  0  0  0  0
    3.6062    1.4389    0.0000 C   0  0  0  0  0  0  0  0  0  0  0  0
    4.4164    1.5948    0.0000 C   0  0  0  0  0  0  0  0  0  0  0  0
    4.6864    2.3743    0.0000 H   0  0  0  0  0  0  0  0  0  0  0  0
    4.9565    0.9711    0.0000 C   0  0  0  0  0  0  0  0  0  0  0  0
    5.7666    1.1270    0.0000 H   0  0  0  0  0  0  0  0  0  0  0  0
    4.6864    0.1916    0.0000 C   0  0  0  0  0  0  0  0  0  0  0  0
    5.2265   -0.4321    0.0000 H   0  0  0  0  0  0  0  0  0  0  0  0
    3.8763    0.0357    0.0000 C   0  0  0  0  0  0  0  0  0  0  0  0
    3.6062   -0.7439    0.0000 F   0  0  0  0  0  0  0  0  0  0  0  0
    3.3362    0.6593    0.0000 C   0  0  0  0  0  0  0  0  0  0  0  0
    2.5261    0.5034    0.0000 H   0  0  0  0  0  0  0  0  0  0  0  0
    3.6573    2.6379    0.0000 H   0  0  0  0  0  0  0  0  0  0  0  0
    2.9576    2.8803    0.0000 H   0  0  0  0  0  0  0  0  0  0  0  0
    1.6648    1.3312    0.0000 H   0  0  0  0  0  0  0  0  0  0  0  0
    2.3646    1.0888    0.0000 H   0  0  0  0  0  0  0  0  0  0  0  0
    1.9860    3.3098    0.0000 H   0  0  0  0  0  0  0  0  0  0  0  0
    0.6358    3.7775    0.0000 C   0  0  0  0  0  0  0  0  0  0  0  0
    0.0957    4.4012    0.0000 C   0  0  0  0  0  0  0  0  0  0  0  0
   -0.1744    3.6216    0.0000 H   0  0  0  0  0  0  0  0  0  0  0  0
    0.3657    5.1807    0.0000 C   0  0  0  0  0  0  0  0  0  0  0  0
    0.2098    5.9908    0.0000 H   0  0  0  0  0  0  0  0  0  0  0  0
    1.1758    5.3366    0.0000 C   0  0  0  0  0  0  0  0  0  0  0  0
    1.4459    6.1162    0.0000 H   0  0  0  0  0  0  0  0  0  0  0  0
    1.7159    4.7130    0.0000 N   0  0  0  0  0  0  0  0  0  0  0  0
    1.4459    3.9334    0.0000 C   0  0  0  0  0  0  0  0  0  0  0  0
    1.1758    3.1539    0.0000 H   0  0  0  0  0  0  0  0  0  0  0  0
    0.0957    2.2184    0.0000 H   0  0  0  0  0  0  0  0  0  0  0  0
   -1.7946    3.3098    0.0000 C   0  0  0  0  0  0  0  0  0  0  0  0
   -2.3347    3.9334    0.0000 C   0  0  0  0  0  0  0  0  0  0  0  0
   -3.1128    4.2077    0.0000 H   0  0  0  0  0  0  0  0  0  0  0  0
   -2.0647    4.7130    0.0000 C   0  0  0  0  0  0  0  0  0  0  0  0
   -2.6080    3.1715    0.0000 H   0  0  0  0  0  0  0  0  0  0  0  0
   -0.4444    5.0248    0.0000 H   0  0  0  0  0  0  0  0  0  0  0  0
   -3.1799    6.3560    0.0000 H   0  0  0  0  0  0  0  0  0  0  0  0
   -4.1006    5.6394    0.0000 H   0  0  0  0  0  0  0  0  0  0  0  0
   -3.3840    4.7187    0.0000 H   0  0  0  0  0  0  0  0  0  0  0  0
  1  2  1  0  0  0  0
  2  3  1  0  0  0  0
  3  4  2  0  0  0  0
  4  5  1  0  0  0  0
  4  6  1  0  0  0  0
  6  7  2  0  0  0  0
  7  8  1  0  0  0  0
  8  9  1  0  0  0  0
  9 10  1  0  0  0  0
 10 11  2  0  0  0  0
 10 12  1  0  0  0  0
 12 13  2  0  0  0  0
 13 14  1  0  0  0  0
 13 15  1  0  0  0  0
 15 16  1  0  0  0  0
 15 17  1  0  0  0  0
 17 18  1  0  0  0  0
 17 19  2  0  0  0  0
 12 19  1  0  0  0  0
  9 20  1  0  0  0  0
 20 21  1  0  0  0  0
 21 22  2  0  0  0  0
 21 23  1  0  0  0  0
 23 24  1  0  0  0  0
 24 25  1  0  0  0  0
 25 26  1  0  0  0  0
 26 27  2  0  0  0  0
 27 28  1  0  0  0  0
 27 29  1  0  0  0  0
 29 30  1  0  0  0  0
 29 31  2  0  0  0  0
 31 32  1  0  0  0  0
 31 33  1  0  0  0  0
 33 34  1  0  0  0  0
 33 35  2  0  0  0  0
 26 35  1  0  0  0  0
 35 36  1  0  0  0  0
 25 37  1  0  0  0  0
 25 38  1  0  0  0  0
 24 39  1  0  0  0  0
 24 40  1  0  0  0  0
 23 41  1  0  0  0  0
 20 42  1  0  0  0  0
 42 43  2  0  0  0  0
 43 44  1  0  0  0  0
 43 45  1  0  0  0  0
 45 46  1  0  0  0  0
 45 47  2  0  0  0  0
 47 48  1  0  0  0  0
 47 49  1  0  0  0  0
 49 50  2  0  0  0  0
 42 50  1  0  0  0  0
 50 51  1  0  0  0  0
 20 52  1  0  0  0  0
  8 53  2  0  0  0  0
 53 54  1  0  0  0  0
 54 55  1  0  0  0  0
 54 56  2  0  0  0  0
  2 56  1  0  0  0  0
  6 56  1  0  0  0  0
 53 57  1  0  0  0  0
  7 58  1  0  0  0  0
  1 59  1  0  0  0  0
  1 60  1  0  0  0  0
  1 61  1  0  0  0  0
M  END
> <Potency>
99.0

> <pIC50>
4.00436480540245

> <Outcome>
Inactive

> <is_active>
0

$$$$

  Mrv1921 08232120312D          

 61 65  0  0  0  0            999 V2000
   -3.2820    5.5373    0.0000 C   0  0  0  0  0  0  0  0  0  0  0  0
   -2.4633    5.4353    0.0000 N   0  0  0  0  0  0  0  0  0  0  0  0
   -1.8995    6.0376    0.0000 C   0  0  0  0  0  0  0  0  0  0  0  0
   -2.0555    6.8477    0.0000 H   0  0  0  0  0  0  0  0  0  0  0  0
   -1.1525    5.6875    0.0000 N   0  0  0  0  0  0  0  0  0  0  0  0
   -1.2546    4.8689    0.0000 C   0  0  0  0  0  0  0  0  0  0  0  0
   -0.7145    4.2452    0.0000 C   0  0  0  0  0  0  0  0  0  0  0  0
   -0.9845    3.4657    0.0000 C   0  0  0  0  0  0  0  0  0  0  0  0
   -0.4444    2.8421    0.0000 N   0  0  0  0  0  0  0  0  0  0  0  0
   -0.7145    2.0625    0.0000 C   0  0  0  0  0  0  0  0  0  0  0  0
   -0.1744    1.4389    0.0000 O   0  0  0  0  0  0  0  0  0  0  0  0
   -1.5246    1.9066    0.0000 C   0  0  0  0  0  0  0  0  0  0  0  0
   -1.8747    1.1595    0.0000 C   0  0  0  0  0  0  0  0  0  0  0  0
   -1.4760    0.4372    0.0000 H   0  0  0  0  0  0  0  0  0  0  0  0
   -2.6933    1.2616    0.0000 N   0  0  0  0  0  0  0  0  0  0  0  0
   -3.2571    0.6593    0.0000 H   0  0  0  0  0  0  0  0  0  0  0  0
   -2.8492    2.0717    0.0000 C   0  0  0  0  0  0  0  0  0  0  0  0
   -3.5963    2.4218    0.0000 H   0  0  0  0  0  0  0  0  0  0  0  0
   -2.1269    2.4704    0.0000 N   0  0  0  0  0  0  0  0  0  0  0  0
    0.3657    2.9980    0.0000 C   0  0  0  0  0  0  0  0  0  0  0  0
    0.9058    2.3743    0.0000 C   0  0  0  0  0  0  0  0  0  0  0  0
    0.6358    1.5948    0.0000 O   0  0  0  0  0  0  0  0  0  0  0  0
    1.7159    2.5302    0.0000 N   0  0  0  0  0  0  0  0  0  0  0  0
    2.2560    1.9066    0.0000 C   0  0  0  0  0  0  0  0  0  0  0  0
    3.0662    2.0625    0.0000 C   0  0  0  0  0  0  0  0  0  0  0  0
    3.6062    1.4389    0.0000 C   0  0  0  0  0  0  0  0  0  0  0  0
    4.4164    1.5948    0.0000 C   0  0  0  0  0  0  0  0  0  0  0  0
    4.6864    2.3743    0.0000 H   0  0  0  0  0  0  0  0  0  0  0  0
    4.9565    0.9711    0.0000 C   0  0  0  0  0  0  0  0  0  0  0  0
    5.7666    1.1270    0.0000 H   0  0  0  0  0  0  0  0  0  0  0  0
    4.6864    0.1916    0.0000 C   0  0  0  0  0  0  0  0  0  0  0  0
    5.2265   -0.4321    0.0000 H   0  0  0  0  0  0  0  0  0  0  0  0
    3.8763    0.0357    0.0000 C   0  0  0  0  0  0  0  0  0  0  0  0
    3.6062   -0.7439    0.0000 F   0  0  0  0  0  0  0  0  0  0  0  0
    3.3362    0.6593    0.0000 C   0  0  0  0  0  0  0  0  0  0  0  0
    2.5261    0.5034    0.0000 H   0  0  0  0  0  0  0  0  0  0  0  0
    3.6573    2.6379    0.0000 H   0  0  0  0  0  0  0  0  0  0  0  0
    2.9576    2.8803    0.0000 H   0  0  0  0  0  0  0  0  0  0  0  0
    1.6648    1.3312    0.0000 H   0  0  0  0  0  0  0  0  0  0  0  0
    2.3646    1.0888    0.0000 H   0  0  0  0  0  0  0  0  0  0  0  0
    1.9860    3.3098    0.0000 H   0  0  0  0  0  0  0  0  0  0  0  0
    0.6358    3.7775    0.0000 C   0  0  0  0  0  0  0  0  0  0  0  0
    0.0957    4.4012    0.0000 C   0  0  0  0  0  0  0  0  0  0  0  0
   -0.1744    3.6216    0.0000 H   0  0  0  0  0  0  0  0  0  0  0  0
    0.3657    5.1807    0.0000 C   0  0  0  0  0  0  0  0  0  0  0  0
    0.2098    5.9908    0.0000 H   0  0  0  0  0  0  0  0  0  0  0  0
    1.1758    5.3366    0.0000 C   0  0  0  0  0  0  0  0  0  0  0  0
    1.4459    6.1162    0.0000 H   0  0  0  0  0  0  0  0  0  0  0  0
    1.7159    4.7130    0.0000 N   0  0  0  0  0  0  0  0  0  0  0  0
    1.4459    3.9334    0.0000 C   0  0  0  0  0  0  0  0  0  0  0  0
    1.1758    3.1539    0.0000 H   0  0  0  0  0  0  0  0  0  0  0  0
    0.0957    2.2184    0.0000 H   0  0  0  0  0  0  0  0  0  0  0  0
   -1.7946    3.3098    0.0000 C   0  0  0  0  0  0  0  0  0  0  0  0
   -2.3347    3.9334    0.0000 C   0  0  0  0  0  0  0  0  0  0  0  0
   -3.1128    4.2077    0.0000 H   0  0  0  0  0  0  0  0  0  0  0  0
   -2.0647    4.7130    0.0000 C   0  0  0  0  0  0  0  0  0  0  0  0
   -2.6080    3.1715    0.0000 H   0  0  0  0  0  0  0  0  0  0  0  0
   -0.4444    5.0248    0.0000 H   0  0  0  0  0  0  0  0  0  0  0  0
   -3.1799    6.3560    0.0000 H   0  0  0  0  0  0  0  0  0  0  0  0
   -4.1006    5.6394    0.0000 H   0  0  0  0  0  0  0  0  0  0  0  0
   -3.3840    4.7187    0.0000 H   0  0  0  0  0  0  0  0  0  0  0  0
  1  2  1  0  0  0  0
  2  3  1  0  0  0  0
  3  4  1  0  0  0  0
  3  5  2  0  0  0  0
  5  6  1  0  0  0  0
  6  7  2  0  0  0  0
  7  8  1  0  0  0  0
  8  9  1  0  0  0  0
  9 10  1  0  0  0  0
 10 11  2  0  0  0  0
 10 12  1  0  0  0  0
 12 13  2  0  0  0  0
 13 14  1  0  0  0  0
 13 15  1  0  0  0  0
 15 16  1  0  0  0  0
 15 17  1  0  0  0  0
 17 18  1  0  0  0  0
 17 19  2  0  0  0  0
 12 19  1  0  0  0  0
  9 20  1  0  0  0  0
 20 21  1  0  0  0  0
 21 22  2  0  0  0  0
 21 23  1  0  0  0  0
 23 24  1  0  0  0  0
 24 25  1  0  0  0  0
 25 26  1  0  0  0  0
 26 27  2  0  0  0  0
 27 28  1  0  0  0  0
 27 29  1  0  0  0  0
 29 30  1  0  0  0  0
 29 31  2  0  0  0  0
 31 32  1  0  0  0  0
 31 33  1  0  0  0  0
 33 34  1  0  0  0  0
 33 35  2  0  0  0  0
 26 35  1  0  0  0  0
 35 36  1  0  0  0  0
 25 37  1  0  0  0  0
 25 38  1  0  0  0  0
 24 39  1  0  0  0  0
 24 40  1  0  0  0  0
 23 41  1  0  0  0  0
 20 42  1  0  0  0  0
 42 43  2  0  0  0  0
 43 44  1  0  0  0  0
 43 45  1  0  0  0  0
 45 46  1  0  0  0  0
 45 47  2  0  0  0  0
 47 48  1  0  0  0  0
 47 49  1  0  0  0  0
 49 50  2  0  0  0  0
 42 50  1  0  0  0  0
 50 51  1  0  0  0  0
 20 52  1  0  0  0  0
  8 53  2  0  0  0  0
 53 54  1  0  0  0  0
 54 55  1  0  0  0  0
 54 56  2  0  0  0  0
  2 56  1  0  0  0  0
  6 56  1  0  0  0  0
 53 57  1  0  0  0  0
  7 58  1  0  0  0  0
  1 59  1  0  0  0  0
  1 60  1  0  0  0  0
  1 61  1  0  0  0  0
M  END
> <Potency>
99.0

> <pIC50>
4.00436480540245

> <Outcome>
Inactive

> <is_active>
0

$$$$

  Mrv1921 08232120312D          

 62 66  0  0  0  0            999 V2000
   -3.2820    5.5373    0.0000 C   0  0  0  0  0  0  0  0  0  0  0  0
   -2.4633    5.4353    0.0000 N   0  0  0  0  0  0  0  0  0  0  0  0
   -1.8995    6.0376    0.0000 C   0  0  0  0  0  0  0  0  0  0  0  0
   -2.0555    6.8477    0.0000 H   0  0  0  0  0  0  0  0  0  0  0  0
   -1.1525    5.6875    0.0000 C   0  0  0  0  0  0  0  0  0  0  0  0
   -0.4302    6.0862    0.0000 H   0  0  0  0  0  0  0  0  0  0  0  0
   -1.2546    4.8689    0.0000 C   0  0  0  0  0  0  0  0  0  0  0  0
   -0.7145    4.2452    0.0000 C   0  0  0  0  0  0  0  0  0  0  0  0
   -0.9845    3.4657    0.0000 C   0  0  0  0  0  0  0  0  0  0  0  0
   -0.4444    2.8421    0.0000 N   0  0  0  0  0  0  0  0  0  0  0  0
   -0.7145    2.0625    0.0000 C   0  0  0  0  0  0  0  0  0  0  0  0
   -0.1744    1.4389    0.0000 O   0  0  0  0  0  0  0  0  0  0  0  0
   -1.5246    1.9066    0.0000 C   0  0  0  0  0  0  0  0  0  0  0  0
   -1.8747    1.1595    0.0000 C   0  0  0  0  0  0  0  0  0  0  0  0
   -1.4760    0.4372    0.0000 H   0  0  0  0  0  0  0  0  0  0  0  0
   -2.6933    1.2616    0.0000 N   0  0  0  0  0  0  0  0  0  0  0  0
   -3.2571    0.6593    0.0000 H   0  0  0  0  0  0  0  0  0  0  0  0
   -2.8492    2.0717    0.0000 C   0  0  0  0  0  0  0  0  0  0  0  0
   -3.5963    2.4218    0.0000 H   0  0  0  0  0  0  0  0  0  0  0  0
   -2.1269    2.4704    0.0000 N   0  0  0  0  0  0  0  0  0  0  0  0
    0.3657    2.9980    0.0000 C   0  0  0  0  0  0  0  0  0  0  0  0
    0.9058    2.3743    0.0000 C   0  0  0  0  0  0  0  0  0  0  0  0
    0.6358    1.5948    0.0000 O   0  0  0  0  0  0  0  0  0  0  0  0
    1.7159    2.5302    0.0000 N   0  0  0  0  0  0  0  0  0  0  0  0
    2.2560    1.9066    0.0000 C   0  0  0  0  0  0  0  0  0  0  0  0
    3.0662    2.0625    0.0000 C   0  0  0  0  0  0  0  0  0  0  0  0
    3.6062    1.4389    0.0000 C   0  0  0  0  0  0  0  0  0  0  0  0
    4.4164    1.5948    0.0000 C   0  0  0  0  0  0  0  0  0  0  0  0
    4.6864    2.3743    0.0000 H   0  0  0  0  0  0  0  0  0  0  0  0
    4.9565    0.9711    0.0000 C   0  0  0  0  0  0  0  0  0  0  0  0
    5.7666    1.1270    0.0000 H   0  0  0  0  0  0  0  0  0  0  0  0
    4.6864    0.1916    0.0000 C   0  0  0  0  0  0  0  0  0  0  0  0
    5.2265   -0.4321    0.0000 H   0  0  0  0  0  0  0  0  0  0  0  0
    3.8763    0.0357    0.0000 C   0  0  0  0  0  0  0  0  0  0  0  0
    3.6062   -0.7439    0.0000 F   0  0  0  0  0  0  0  0  0  0  0  0
    3.3362    0.6593    0.0000 C   0  0  0  0  0  0  0  0  0  0  0  0
    2.5261    0.5034    0.0000 H   0  0  0  0  0  0  0  0  0  0  0  0
    3.6573    2.6379    0.0000 H   0  0  0  0  0  0  0  0  0  0  0  0
    2.9576    2.8803    0.0000 H   0  0  0  0  0  0  0  0  0  0  0  0
    1.6648    1.3312    0.0000 H   0  0  0  0  0  0  0  0  0  0  0  0
    2.3646    1.0888    0.0000 H   0  0  0  0  0  0  0  0  0  0  0  0
    1.9860    3.3098    0.0000 H   0  0  0  0  0  0  0  0  0  0  0  0
    0.6358    3.7775    0.0000 C   0  0  0  0  0  0  0  0  0  0  0  0
    0.0957    4.4012    0.0000 C   0  0  0  0  0  0  0  0  0  0  0  0
   -0.1744    3.6216    0.0000 H   0  0  0  0  0  0  0  0  0  0  0  0
    0.3657    5.1807    0.0000 C   0  0  0  0  0  0  0  0  0  0  0  0
    0.2098    5.9908    0.0000 H   0  0  0  0  0  0  0  0  0  0  0  0
    1.1758    5.3366    0.0000 C   0  0  0  0  0  0  0  0  0  0  0  0
    1.4459    6.1162    0.0000 H   0  0  0  0  0  0  0  0  0  0  0  0
    1.7159    4.7130    0.0000 N   0  0  0  0  0  0  0  0  0  0  0  0
    1.4459    3.9334    0.0000 C   0  0  0  0  0  0  0  0  0  0  0  0
    1.1758    3.1539    0.0000 H   0  0  0  0  0  0  0  0  0  0  0  0
    0.0957    2.2184    0.0000 H   0  0  0  0  0  0  0  0  0  0  0  0
   -1.7946    3.3098    0.0000 C   0  0  0  0  0  0  0  0  0  0  0  0
   -2.3347    3.9334    0.0000 C   0  0  0  0  0  0  0  0  0  0  0  0
   -3.1128    4.2077    0.0000 H   0  0  0  0  0  0  0  0  0  0  0  0
   -2.0647    4.7130    0.0000 C   0  0  0  0  0  0  0  0  0  0  0  0
   -2.6080    3.1715    0.0000 H   0  0  0  0  0  0  0  0  0  0  0  0
   -0.4444    5.0248    0.0000 H   0  0  0  0  0  0  0  0  0  0  0  0
   -3.1799    6.3560    0.0000 H   0  0  0  0  0  0  0  0  0  0  0  0
   -4.1006    5.6394    0.0000 H   0  0  0  0  0  0  0  0  0  0  0  0
   -3.3840    4.7187    0.0000 H   0  0  0  0  0  0  0  0  0  0  0  0
  1  2  1  0  0  0  0
  2  3  1  0  0  0  0
  3  4  1  0  0  0  0
  3  5  2  0  0  0  0
  5  6  1  0  0  0  0
  5  7  1  0  0  0  0
  7  8  2  0  0  0  0
  8  9  1  0  0  0  0
  9 10  1  0  0  0  0
 10 11  1  0  0  0  0
 11 12  2  0  0  0  0
 11 13  1  0  0  0  0
 13 14  2  0  0  0  0
 14 15  1  0  0  0  0
 14 16  1  0  0  0  0
 16 17  1  0  0  0  0
 16 18  1  0  0  0  0
 18 19  1  0  0  0  0
 18 20  2  0  0  0  0
 13 20  1  0  0  0  0
 10 21  1  0  0  0  0
 21 22  1  0  0  0  0
 22 23  2  0  0  0  0
 22 24  1  0  0  0  0
 24 25  1  0  0  0  0
 25 26  1  0  0  0  0
 26 27  1  0  0  0  0
 27 28  2  0  0  0  0
 28 29  1  0  0  0  0
 28 30  1  0  0  0  0
 30 31  1  0  0  0  0
 30 32  2  0  0  0  0
 32 33  1  0  0  0  0
 32 34  1  0  0  0  0
 34 35  1  0  0  0  0
 34 36  2  0  0  0  0
 27 36  1  0  0  0  0
 36 37  1  0  0  0  0
 26 38  1  0  0  0  0
 26 39  1  0  0  0  0
 25 40  1  0  0  0  0
 25 41  1  0  0  0  0
 24 42  1  0  0  0  0
 21 43  1  0  0  0  0
 43 44  2  0  0  0  0
 44 45  1  0  0  0  0
 44 46  1  0  0  0  0
 46 47  1  0  0  0  0
 46 48  2  0  0  0  0
 48 49  1  0  0  0  0
 48 50  1  0  0  0  0
 50 51  2  0  0  0  0
 43 51  1  0  0  0  0
 51 52  1  0  0  0  0
 21 53  1  0  0  0  0
  9 54  2  0  0  0  0
 54 55  1  0  0  0  0
 55 56  1  0  0  0  0
 55 57  2  0  0  0  0
  2 57  1  0  0  0  0
  7 57  1  0  0  0  0
 54 58  1  0  0  0  0
  8 59  1  0  0  0  0
  1 60  1  0  0  0  0
  1 61  1  0  0  0  0
  1 62  1  0  0  0  0
M  END
> <Potency>
99.0

> <pIC50>
4.00436480540245

> <Outcome>
Inactive

> <is_active>
0

$$$$

  Mrv1921 08232120312D          

 60 64  0  0  0  0            999 V2000
   -2.0355    5.4213    0.0000 C   0  0  0  0  0  0  0  0  0  0  0  0
   -1.2559    5.1513    0.0000 C   0  0  0  0  0  0  0  0  0  0  0  0
   -0.5792    5.6232    0.0000 N   0  0  0  0  0  0  0  0  0  0  0  0
    0.0787    5.1255    0.0000 C   0  0  0  0  0  0  0  0  0  0  0  0
    0.8889    5.2814    0.0000 C   0  0  0  0  0  0  0  0  0  0  0  0
    1.4289    4.6577    0.0000 C   0  0  0  0  0  0  0  0  0  0  0  0
    1.1589    3.8782    0.0000 C   0  0  0  0  0  0  0  0  0  0  0  0
    1.6990    3.2546    0.0000 N   0  0  0  0  0  0  0  0  0  0  0  0
    1.4289    2.4750    0.0000 C   0  0  0  0  0  0  0  0  0  0  0  0
    1.9690    1.8514    0.0000 O   0  0  0  0  0  0  0  0  0  0  0  0
    0.6188    2.3191    0.0000 C   0  0  0  0  0  0  0  0  0  0  0  0
    0.2688    1.5720    0.0000 C   0  0  0  0  0  0  0  0  0  0  0  0
    0.6674    0.8497    0.0000 H   0  0  0  0  0  0  0  0  0  0  0  0
   -0.5499    1.6741    0.0000 N   0  0  0  0  0  0  0  0  0  0  0  0
   -1.1137    1.0718    0.0000 H   0  0  0  0  0  0  0  0  0  0  0  0
   -0.7058    2.4842    0.0000 C   0  0  0  0  0  0  0  0  0  0  0  0
   -1.4529    2.8343    0.0000 H   0  0  0  0  0  0  0  0  0  0  0  0
    0.0165    2.8829    0.0000 N   0  0  0  0  0  0  0  0  0  0  0  0
    2.5091    3.4105    0.0000 C   0  0  0  0  0  0  0  0  0  0  0  0
    3.0492    2.7868    0.0000 C   0  0  0  0  0  0  0  0  0  0  0  0
    2.7792    2.0073    0.0000 O   0  0  0  0  0  0  0  0  0  0  0  0
    3.8593    2.9427    0.0000 N   0  0  0  0  0  0  0  0  0  0  0  0
    4.3994    2.3191    0.0000 C   0  0  0  0  0  0  0  0  0  0  0  0
    5.2096    2.4750    0.0000 C   0  0  0  0  0  0  0  0  0  0  0  0
    5.7497    1.8514    0.0000 C   0  0  0  0  0  0  0  0  0  0  0  0
    6.5598    2.0073    0.0000 C   0  0  0  0  0  0  0  0  0  0  0  0
    6.8298    2.7868    0.0000 H   0  0  0  0  0  0  0  0  0  0  0  0
    7.0999    1.3836    0.0000 C   0  0  0  0  0  0  0  0  0  0  0  0
    7.9100    1.5395    0.0000 H   0  0  0  0  0  0  0  0  0  0  0  0
    6.8298    0.6041    0.0000 C   0  0  0  0  0  0  0  0  0  0  0  0
    7.3699   -0.0196    0.0000 H   0  0  0  0  0  0  0  0  0  0  0  0
    6.0197    0.4482    0.0000 C   0  0  0  0  0  0  0  0  0  0  0  0
    5.7497   -0.3314    0.0000 F   0  0  0  0  0  0  0  0  0  0  0  0
    5.4796    1.0718    0.0000 C   0  0  0  0  0  0  0  0  0  0  0  0
    4.6695    0.9159    0.0000 H   0  0  0  0  0  0  0  0  0  0  0  0
    5.8007    3.0504    0.0000 H   0  0  0  0  0  0  0  0  0  0  0  0
    5.1010    3.2928    0.0000 H   0  0  0  0  0  0  0  0  0  0  0  0
    3.8083    1.7437    0.0000 H   0  0  0  0  0  0  0  0  0  0  0  0
    4.5080    1.5013    0.0000 H   0  0  0  0  0  0  0  0  0  0  0  0
    4.1294    3.7223    0.0000 H   0  0  0  0  0  0  0  0  0  0  0  0
    2.7792    4.1900    0.0000 C   0  0  0  0  0  0  0  0  0  0  0  0
    2.2391    4.8137    0.0000 C   0  0  0  0  0  0  0  0  0  0  0  0
    1.6990    5.4373    0.0000 H   0  0  0  0  0  0  0  0  0  0  0  0
    2.5091    5.5932    0.0000 C   0  0  0  0  0  0  0  0  0  0  0  0
    2.3532    6.4033    0.0000 H   0  0  0  0  0  0  0  0  0  0  0  0
    3.3193    5.7491    0.0000 C   0  0  0  0  0  0  0  0  0  0  0  0
    3.5893    6.5287    0.0000 H   0  0  0  0  0  0  0  0  0  0  0  0
    3.8593    5.1255    0.0000 N   0  0  0  0  0  0  0  0  0  0  0  0
    3.5893    4.3459    0.0000 C   0  0  0  0  0  0  0  0  0  0  0  0
    3.3193    3.5664    0.0000 H   0  0  0  0  0  0  0  0  0  0  0  0
    2.2391    2.6309    0.0000 H   0  0  0  0  0  0  0  0  0  0  0  0
    0.3488    3.7223    0.0000 C   0  0  0  0  0  0  0  0  0  0  0  0
   -0.4646    3.5840    0.0000 H   0  0  0  0  0  0  0  0  0  0  0  0
   -0.1913    4.3459    0.0000 C   0  0  0  0  0  0  0  0  0  0  0  0
   -1.0162    4.3619    0.0000 O   0  0  0  0  0  0  0  0  0  0  0  0
    1.9690    4.0341    0.0000 H   0  0  0  0  0  0  0  0  0  0  0  0
    1.1589    6.0609    0.0000 H   0  0  0  0  0  0  0  0  0  0  0  0
   -1.7654    6.2009    0.0000 H   0  0  0  0  0  0  0  0  0  0  0  0
   -2.8150    5.6913    0.0000 H   0  0  0  0  0  0  0  0  0  0  0  0
   -2.3055    4.6417    0.0000 H   0  0  0  0  0  0  0  0  0  0  0  0
  1  2  1  0  0  0  0
  2  3  2  0  0  0  0
  3  4  1  0  0  0  0
  4  5  2  0  0  0  0
  5  6  1  0  0  0  0
  6  7  2  0  0  0  0
  7  8  1  0  0  0  0
  8  9  1  0  0  0  0
  9 10  2  0  0  0  0
  9 11  1  0  0  0  0
 11 12  2  0  0  0  0
 12 13  1  0  0  0  0
 12 14  1  0  0  0  0
 14 15  1  0  0  0  0
 14 16  1  0  0  0  0
 16 17  1  0  0  0  0
 16 18  2  0  0  0  0
 11 18  1  0  0  0  0
  8 19  1  0  0  0  0
 19 20  1  0  0  0  0
 20 21  2  0  0  0  0
 20 22  1  0  0  0  0
 22 23  1  0  0  0  0
 23 24  1  0  0  0  0
 24 25  1  0  0  0  0
 25 26  2  0  0  0  0
 26 27  1  0  0  0  0
 26 28  1  0  0  0  0
 28 29  1  0  0  0  0
 28 30  2  0  0  0  0
 30 31  1  0  0  0  0
 30 32  1  0  0  0  0
 32 33  1  0  0  0  0
 32 34  2  0  0  0  0
 25 34  1  0  0  0  0
 34 35  1  0  0  0  0
 24 36  1  0  0  0  0
 24 37  1  0  0  0  0
 23 38  1  0  0  0  0
 23 39  1  0  0  0  0
 22 40  1  0  0  0  0
 19 41  1  0  0  0  0
 41 42  2  0  0  0  0
 42 43  1  0  0  0  0
 42 44  1  0  0  0  0
 44 45  1  0  0  0  0
 44 46  2  0  0  0  0
 46 47  1  0  0  0  0
 46 48  1  0  0  0  0
 48 49  2  0  0  0  0
 41 49  1  0  0  0  0
 49 50  1  0  0  0  0
 19 51  1  0  0  0  0
  7 52  1  0  0  0  0
 52 53  1  0  0  0  0
 52 54  2  0  0  0  0
  4 54  1  0  0  0  0
 54 55  1  0  0  0  0
  2 55  1  0  0  0  0
  6 56  1  0  0  0  0
  5 57  1  0  0  0  0
  1 58  1  0  0  0  0
  1 59  1  0  0  0  0
  1 60  1  0  0  0  0
M  END
> <Potency>
99.0

> <pIC50>
4.00436480540245

> <Outcome>
Inactive

> <is_active>
0

$$$$

  Mrv1921 08232120312D          

 63 67  0  0  0  0            999 V2000
    5.2883   -3.6573    0.0000 O   0  0  0  0  0  0  0  0  0  0  0  0
    5.0182   -4.4368    0.0000 C   0  0  0  0  0  0  0  0  0  0  0  0
    4.2081   -4.5927    0.0000 N   0  0  0  0  0  0  0  0  0  0  0  0
    3.6680   -3.9691    0.0000 C   0  0  0  0  0  0  0  0  0  0  0  0
    2.8579   -4.1250    0.0000 C   0  0  0  0  0  0  0  0  0  0  0  0
    2.3178   -3.5014    0.0000 C   0  0  0  0  0  0  0  0  0  0  0  0
    1.5077   -3.6573    0.0000 C   0  0  0  0  0  0  0  0  0  0  0  0
    1.2376   -4.4368    0.0000 H   0  0  0  0  0  0  0  0  0  0  0  0
    0.9676   -3.0336    0.0000 C   0  0  0  0  0  0  0  0  0  0  0  0
    0.1574   -3.1895    0.0000 H   0  0  0  0  0  0  0  0  0  0  0  0
    1.2376   -2.2541    0.0000 C   0  0  0  0  0  0  0  0  0  0  0  0
    0.6975   -1.6304    0.0000 H   0  0  0  0  0  0  0  0  0  0  0  0
    2.0477   -2.0982    0.0000 C   0  0  0  0  0  0  0  0  0  0  0  0
    2.3178   -1.3186    0.0000 F   0  0  0  0  0  0  0  0  0  0  0  0
    2.5878   -2.7218    0.0000 C   0  0  0  0  0  0  0  0  0  0  0  0
    3.3980   -2.5659    0.0000 H   0  0  0  0  0  0  0  0  0  0  0  0
    2.2667   -4.7004    0.0000 H   0  0  0  0  0  0  0  0  0  0  0  0
    2.9664   -4.9428    0.0000 H   0  0  0  0  0  0  0  0  0  0  0  0
    4.2592   -3.3937    0.0000 H   0  0  0  0  0  0  0  0  0  0  0  0
    3.5595   -3.1513    0.0000 H   0  0  0  0  0  0  0  0  0  0  0  0
    3.9381   -5.3723    0.0000 H   0  0  0  0  0  0  0  0  0  0  0  0
    5.5583   -5.0605    0.0000 C   0  0  0  0  0  0  0  0  0  0  0  0
    5.2883   -5.8400    0.0000 C   0  0  0  0  0  0  0  0  0  0  0  0
    5.8284   -6.4637    0.0000 C   0  0  0  0  0  0  0  0  0  0  0  0
    6.0984   -5.6841    0.0000 H   0  0  0  0  0  0  0  0  0  0  0  0
    5.5583   -7.2432    0.0000 C   0  0  0  0  0  0  0  0  0  0  0  0
    6.0984   -7.8668    0.0000 H   0  0  0  0  0  0  0  0  0  0  0  0
    4.7482   -7.3991    0.0000 C   0  0  0  0  0  0  0  0  0  0  0  0
    4.4782   -8.1787    0.0000 H   0  0  0  0  0  0  0  0  0  0  0  0
    4.2081   -6.7755    0.0000 N   0  0  0  0  0  0  0  0  0  0  0  0
    4.4782   -5.9959    0.0000 C   0  0  0  0  0  0  0  0  0  0  0  0
    3.6680   -6.1518    0.0000 H   0  0  0  0  0  0  0  0  0  0  0  0
    6.3685   -4.9046    0.0000 N   0  0  0  0  0  0  0  0  0  0  0  0
    6.6385   -4.1250    0.0000 C   0  0  0  0  0  0  0  0  0  0  0  0
    6.0984   -3.5014    0.0000 O   0  0  0  0  0  0  0  0  0  0  0  0
    7.4486   -3.9691    0.0000 C   0  0  0  0  0  0  0  0  0  0  0  0
    7.7987   -3.2220    0.0000 C   0  0  0  0  0  0  0  0  0  0  0  0
    7.4001   -2.4997    0.0000 H   0  0  0  0  0  0  0  0  0  0  0  0
    8.6174   -3.3241    0.0000 N   0  0  0  0  0  0  0  0  0  0  0  0
    9.1811   -2.7218    0.0000 H   0  0  0  0  0  0  0  0  0  0  0  0
    8.7733   -4.1342    0.0000 C   0  0  0  0  0  0  0  0  0  0  0  0
    9.5203   -4.4843    0.0000 H   0  0  0  0  0  0  0  0  0  0  0  0
    8.0510   -4.5329    0.0000 N   0  0  0  0  0  0  0  0  0  0  0  0
    6.9086   -5.5282    0.0000 C   0  0  0  0  0  0  0  0  0  0  0  0
    7.7187   -5.3723    0.0000 C   0  0  0  0  0  0  0  0  0  0  0  0
    7.1923   -4.7371    0.0000 H   0  0  0  0  0  0  0  0  0  0  0  0
    8.2588   -5.9959    0.0000 N   0  0  0  0  0  0  0  0  0  0  0  0
    7.9887   -6.7755    0.0000 C   0  0  0  0  0  0  0  0  0  0  0  0
    8.5288   -7.3991    0.0000 C   0  0  0  0  0  0  0  0  0  0  0  0
    9.3517   -7.4582    0.0000 C   0  0  0  0  0  0  0  0  0  0  0  0
   10.1618   -7.3023    0.0000 H   0  0  0  0  0  0  0  0  0  0  0  0
    9.6217   -6.6786    0.0000 H   0  0  0  0  0  0  0  0  0  0  0  0
    9.2926   -8.2811    0.0000 C   0  0  0  0  0  0  0  0  0  0  0  0
    9.4485   -9.0912    0.0000 H   0  0  0  0  0  0  0  0  0  0  0  0
   10.0722   -8.5511    0.0000 H   0  0  0  0  0  0  0  0  0  0  0  0
    8.4697   -8.2220    0.0000 C   0  0  0  0  0  0  0  0  0  0  0  0
    7.8891   -8.8081    0.0000 H   0  0  0  0  0  0  0  0  0  0  0  0
    8.5096   -9.0460    0.0000 H   0  0  0  0  0  0  0  0  0  0  0  0
    7.7460   -7.6594    0.0000 H   0  0  0  0  0  0  0  0  0  0  0  0
    7.1786   -6.9314    0.0000 N   0  0  0  0  0  0  0  0  0  0  0  0
    6.6385   -6.3077    0.0000 C   0  0  0  0  0  0  0  0  0  0  0  0
    7.4486   -6.1518    0.0000 H   0  0  0  0  0  0  0  0  0  0  0  0
    4.7482   -5.2164    0.0000 H   0  0  0  0  0  0  0  0  0  0  0  0
  1  2  2  0  0  0  0
  2  3  1  0  0  0  0
  3  4  1  0  0  0  0
  4  5  1  0  0  0  0
  5  6  1  0  0  0  0
  6  7  2  0  0  0  0
  7  8  1  0  0  0  0
  7  9  1  0  0  0  0
  9 10  1  0  0  0  0
  9 11  2  0  0  0  0
 11 12  1  0  0  0  0
 11 13  1  0  0  0  0
 13 14  1  0  0  0  0
 13 15  2  0  0  0  0
  6 15  1  0  0  0  0
 15 16  1  0  0  0  0
  5 17  1  0  0  0  0
  5 18  1  0  0  0  0
  4 19  1  0  0  0  0
  4 20  1  0  0  0  0
  3 21  1  0  0  0  0
  2 22  1  0  0  0  0
 22 23  1  0  0  0  0
 23 24  2  0  0  0  0
 24 25  1  0  0  0  0
 24 26  1  0  0  0  0
 26 27  1  0  0  0  0
 26 28  2  0  0  0  0
 28 29  1  0  0  0  0
 28 30  1  0  0  0  0
 30 31  2  0  0  0  0
 23 31  1  0  0  0  0
 31 32  1  0  0  0  0
 22 33  1  0  0  0  0
 33 34  1  0  0  0  0
 34 35  2  0  0  0  0
 34 36  1  0  0  0  0
 36 37  2  0  0  0  0
 37 38  1  0  0  0  0
 37 39  1  0  0  0  0
 39 40  1  0  0  0  0
 39 41  1  0  0  0  0
 41 42  1  0  0  0  0
 41 43  2  0  0  0  0
 36 43  1  0  0  0  0
 33 44  1  0  0  0  0
 44 45  2  0  0  0  0
 45 46  1  0  0  0  0
 45 47  1  0  0  0  0
 47 48  2  0  0  0  0
 48 49  1  0  0  0  0
 49 50  1  0  0  0  0
 50 51  1  0  0  0  0
 50 52  1  0  0  0  0
 50 53  1  0  0  0  0
 53 54  1  0  0  0  0
 53 55  1  0  0  0  0
 53 56  1  0  0  0  0
 49 56  1  0  0  0  0
 56 57  1  0  0  0  0
 56 58  1  0  0  0  0
 49 59  1  0  0  0  0
 48 60  1  0  0  0  0
 60 61  2  0  0  0  0
 44 61  1  0  0  0  0
 61 62  1  0  0  0  0
 22 63  1  0  0  0  0
M  END
> <Potency>
99.0

> <pIC50>
4.00436480540245

> <Outcome>
Inactive

> <is_active>
0

$$$$

  Mrv1921 08232120312D          

 65 69  0  0  0  0            999 V2000
   -2.5709   -1.7052    0.0000 O   0  0  0  0  0  0  0  0  0  0  0  0
   -2.8409   -0.9257    0.0000 C   0  0  0  0  0  0  0  0  0  0  0  0
   -3.6511   -0.7698    0.0000 N   0  0  0  0  0  0  0  0  0  0  0  0
   -4.1912   -1.3934    0.0000 C   0  0  0  0  0  0  0  0  0  0  0  0
   -5.0013   -1.2375    0.0000 C   0  0  0  0  0  0  0  0  0  0  0  0
   -5.5414   -1.8611    0.0000 C   0  0  0  0  0  0  0  0  0  0  0  0
   -5.2713   -2.6407    0.0000 C   0  0  0  0  0  0  0  0  0  0  0  0
   -4.4612   -2.7966    0.0000 H   0  0  0  0  0  0  0  0  0  0  0  0
   -5.8114   -3.2643    0.0000 C   0  0  0  0  0  0  0  0  0  0  0  0
   -5.5414   -4.0439    0.0000 H   0  0  0  0  0  0  0  0  0  0  0  0
   -6.6216   -3.1084    0.0000 C   0  0  0  0  0  0  0  0  0  0  0  0
   -7.1617   -3.7321    0.0000 H   0  0  0  0  0  0  0  0  0  0  0  0
   -6.8916   -2.3289    0.0000 C   0  0  0  0  0  0  0  0  0  0  0  0
   -7.7017   -2.1730    0.0000 F   0  0  0  0  0  0  0  0  0  0  0  0
   -6.3515   -1.7052    0.0000 C   0  0  0  0  0  0  0  0  0  0  0  0
   -6.6216   -0.9257    0.0000 H   0  0  0  0  0  0  0  0  0  0  0  0
   -4.8928   -0.4197    0.0000 H   0  0  0  0  0  0  0  0  0  0  0  0
   -5.5925   -0.6621    0.0000 H   0  0  0  0  0  0  0  0  0  0  0  0
   -4.2997   -2.2112    0.0000 H   0  0  0  0  0  0  0  0  0  0  0  0
   -3.6000   -1.9688    0.0000 H   0  0  0  0  0  0  0  0  0  0  0  0
   -3.9211    0.0098    0.0000 H   0  0  0  0  0  0  0  0  0  0  0  0
   -2.3009   -0.3020    0.0000 C   0  0  0  0  0  0  0  0  0  0  0  0
   -2.5709    0.4775    0.0000 C   0  0  0  0  0  0  0  0  0  0  0  0
   -3.3810    0.6334    0.0000 C   0  0  0  0  0  0  0  0  0  0  0  0
   -4.1912    0.7893    0.0000 H   0  0  0  0  0  0  0  0  0  0  0  0
   -3.6511    1.4130    0.0000 C   0  0  0  0  0  0  0  0  0  0  0  0
   -4.2747    1.9531    0.0000 H   0  0  0  0  0  0  0  0  0  0  0  0
   -3.1110    2.0366    0.0000 C   0  0  0  0  0  0  0  0  0  0  0  0
   -3.3810    2.8162    0.0000 H   0  0  0  0  0  0  0  0  0  0  0  0
   -2.3009    1.8807    0.0000 N   0  0  0  0  0  0  0  0  0  0  0  0
   -2.0308    1.1012    0.0000 C   0  0  0  0  0  0  0  0  0  0  0  0
   -1.7608    0.3216    0.0000 H   0  0  0  0  0  0  0  0  0  0  0  0
   -1.4907   -0.4579    0.0000 N   0  0  0  0  0  0  0  0  0  0  0  0
   -1.2207   -1.2375    0.0000 C   0  0  0  0  0  0  0  0  0  0  0  0
   -1.7608   -1.8611    0.0000 O   0  0  0  0  0  0  0  0  0  0  0  0
   -0.4105   -1.3934    0.0000 C   0  0  0  0  0  0  0  0  0  0  0  0
   -0.0605   -2.1405    0.0000 C   0  0  0  0  0  0  0  0  0  0  0  0
   -0.4591   -2.8628    0.0000 H   0  0  0  0  0  0  0  0  0  0  0  0
    0.7582   -2.0384    0.0000 N   0  0  0  0  0  0  0  0  0  0  0  0
    1.3219   -2.6407    0.0000 H   0  0  0  0  0  0  0  0  0  0  0  0
    0.9141   -1.2283    0.0000 C   0  0  0  0  0  0  0  0  0  0  0  0
    1.6611   -0.8782    0.0000 H   0  0  0  0  0  0  0  0  0  0  0  0
    0.1918   -0.8296    0.0000 N   0  0  0  0  0  0  0  0  0  0  0  0
   -0.9506    0.1657    0.0000 C   0  0  0  0  0  0  0  0  0  0  0  0
   -0.1405    0.0098    0.0000 C   0  0  0  0  0  0  0  0  0  0  0  0
   -0.6669   -0.6254    0.0000 H   0  0  0  0  0  0  0  0  0  0  0  0
    0.3996    0.6334    0.0000 C   0  0  0  0  0  0  0  0  0  0  0  0
    1.2097    0.4775    0.0000 H   0  0  0  0  0  0  0  0  0  0  0  0
    0.1296    1.4130    0.0000 C   0  0  0  0  0  0  0  0  0  0  0  0
   -0.6806    1.5689    0.0000 C   0  0  0  0  0  0  0  0  0  0  0  0
   -0.9506    2.3484    0.0000 C   0  0  0  0  0  0  0  0  0  0  0  0
   -0.4105    2.9721    0.0000 C   0  0  0  0  0  0  0  0  0  0  0  0
    0.3996    2.8162    0.0000 C   0  0  0  0  0  0  0  0  0  0  0  0
    0.6696    2.0366    0.0000 S   0  0  0  0  0  0  0  0  0  0  0  0
    1.4581    2.2793    0.0000 O   0  0  0  0  0  0  0  0  0  0  0  0
    1.3118    1.5186    0.0000 O   0  0  0  0  0  0  0  0  0  0  0  0
    1.1621    3.1311    0.0000 H   0  0  0  0  0  0  0  0  0  0  0  0
    0.6023    3.6159    0.0000 H   0  0  0  0  0  0  0  0  0  0  0  0
   -0.3020    3.7899    0.0000 H   0  0  0  0  0  0  0  0  0  0  0  0
   -1.0017    3.5475    0.0000 H   0  0  0  0  0  0  0  0  0  0  0  0
   -1.6046    2.8514    0.0000 H   0  0  0  0  0  0  0  0  0  0  0  0
   -1.7446    2.1242    0.0000 H   0  0  0  0  0  0  0  0  0  0  0  0
   -1.2207    0.9452    0.0000 C   0  0  0  0  0  0  0  0  0  0  0  0
   -1.4907    1.7248    0.0000 H   0  0  0  0  0  0  0  0  0  0  0  0
   -3.1110   -0.1461    0.0000 H   0  0  0  0  0  0  0  0  0  0  0  0
  1  2  2  0  0  0  0
  2  3  1  0  0  0  0
  3  4  1  0  0  0  0
  4  5  1  0  0  0  0
  5  6  1  0  0  0  0
  6  7  2  0  0  0  0
  7  8  1  0  0  0  0
  7  9  1  0  0  0  0
  9 10  1  0  0  0  0
  9 11  2  0  0  0  0
 11 12  1  0  0  0  0
 11 13  1  0  0  0  0
 13 14  1  0  0  0  0
 13 15  2  0  0  0  0
  6 15  1  0  0  0  0
 15 16  1  0  0  0  0
  5 17  1  0  0  0  0
  5 18  1  0  0  0  0
  4 19  1  0  0  0  0
  4 20  1  0  0  0  0
  3 21  1  0  0  0  0
  2 22  1  0  0  0  0
 22 23  1  0  0  0  0
 23 24  2  0  0  0  0
 24 25  1  0  0  0  0
 24 26  1  0  0  0  0
 26 27  1  0  0  0  0
 26 28  2  0  0  0  0
 28 29  1  0  0  0  0
 28 30  1  0  0  0  0
 30 31  2  0  0  0  0
 23 31  1  0  0  0  0
 31 32  1  0  0  0  0
 22 33  1  0  0  0  0
 33 34  1  0  0  0  0
 34 35  2  0  0  0  0
 34 36  1  0  0  0  0
 36 37  2  0  0  0  0
 37 38  1  0  0  0  0
 37 39  1  0  0  0  0
 39 40  1  0  0  0  0
 39 41  1  0  0  0  0
 41 42  1  0  0  0  0
 41 43  2  0  0  0  0
 36 43  1  0  0  0  0
 33 44  1  0  0  0  0
 44 45  2  0  0  0  0
 45 46  1  0  0  0  0
 45 47  1  0  0  0  0
 47 48  1  0  0  0  0
 47 49  2  0  0  0  0
 49 50  1  0  0  0  0
 50 51  1  0  0  0  0
 51 52  1  0  0  0  0
 52 53  1  0  0  0  0
 53 54  1  0  0  0  0
 49 54  1  0  0  0  0
 54 55  2  0  0  0  0
 54 56  2  0  0  0  0
 53 57  1  0  0  0  0
 53 58  1  0  0  0  0
 52 59  1  0  0  0  0
 52 60  1  0  0  0  0
 51 61  1  0  0  0  0
 51 62  1  0  0  0  0
 50 63  2  0  0  0  0
 44 63  1  0  0  0  0
 63 64  1  0  0  0  0
 22 65  1  0  0  0  0
M  END
> <Potency>
99.0

> <pIC50>
4.00436480540245

> <Outcome>
Inactive

> <is_active>
0

$$$$

  Mrv1921 08232120312D          

 69 73  0  0  0  0            999 V2000
   -2.5709   -1.7052    0.0000 O   0  0  0  0  0  0  0  0  0  0  0  0
   -2.8409   -0.9257    0.0000 C   0  0  0  0  0  0  0  0  0  0  0  0
   -3.6511   -0.7698    0.0000 N   0  0  0  0  0  0  0  0  0  0  0  0
   -4.1912   -1.3934    0.0000 C   0  0  0  0  0  0  0  0  0  0  0  0
   -5.0013   -1.2375    0.0000 C   0  0  0  0  0  0  0  0  0  0  0  0
   -5.5414   -1.8611    0.0000 C   0  0  0  0  0  0  0  0  0  0  0  0
   -5.2713   -2.6407    0.0000 C   0  0  0  0  0  0  0  0  0  0  0  0
   -4.4612   -2.7966    0.0000 H   0  0  0  0  0  0  0  0  0  0  0  0
   -5.8114   -3.2643    0.0000 C   0  0  0  0  0  0  0  0  0  0  0  0
   -5.5414   -4.0439    0.0000 H   0  0  0  0  0  0  0  0  0  0  0  0
   -6.6216   -3.1084    0.0000 C   0  0  0  0  0  0  0  0  0  0  0  0
   -7.1617   -3.7321    0.0000 H   0  0  0  0  0  0  0  0  0  0  0  0
   -6.8916   -2.3289    0.0000 C   0  0  0  0  0  0  0  0  0  0  0  0
   -7.7017   -2.1730    0.0000 F   0  0  0  0  0  0  0  0  0  0  0  0
   -6.3515   -1.7052    0.0000 C   0  0  0  0  0  0  0  0  0  0  0  0
   -6.6216   -0.9257    0.0000 H   0  0  0  0  0  0  0  0  0  0  0  0
   -4.8928   -0.4197    0.0000 H   0  0  0  0  0  0  0  0  0  0  0  0
   -5.5925   -0.6621    0.0000 H   0  0  0  0  0  0  0  0  0  0  0  0
   -4.2997   -2.2112    0.0000 H   0  0  0  0  0  0  0  0  0  0  0  0
   -3.6000   -1.9688    0.0000 H   0  0  0  0  0  0  0  0  0  0  0  0
   -3.9211    0.0098    0.0000 H   0  0  0  0  0  0  0  0  0  0  0  0
   -2.3009   -0.3020    0.0000 C   0  0  0  0  0  0  0  0  0  0  0  0
   -2.5709    0.4775    0.0000 C   0  0  0  0  0  0  0  0  0  0  0  0
   -3.3810    0.6334    0.0000 C   0  0  0  0  0  0  0  0  0  0  0  0
   -4.1912    0.7893    0.0000 H   0  0  0  0  0  0  0  0  0  0  0  0
   -3.6511    1.4130    0.0000 C   0  0  0  0  0  0  0  0  0  0  0  0
   -4.2747    1.9531    0.0000 H   0  0  0  0  0  0  0  0  0  0  0  0
   -3.1110    2.0366    0.0000 C   0  0  0  0  0  0  0  0  0  0  0  0
   -3.3810    2.8162    0.0000 H   0  0  0  0  0  0  0  0  0  0  0  0
   -2.3009    1.8807    0.0000 N   0  0  0  0  0  0  0  0  0  0  0  0
   -2.0308    1.1012    0.0000 C   0  0  0  0  0  0  0  0  0  0  0  0
   -1.7608    0.3216    0.0000 H   0  0  0  0  0  0  0  0  0  0  0  0
   -1.4907   -0.4579    0.0000 N   0  0  0  0  0  0  0  0  0  0  0  0
   -1.2207   -1.2375    0.0000 C   0  0  0  0  0  0  0  0  0  0  0  0
   -1.7608   -1.8611    0.0000 O   0  0  0  0  0  0  0  0  0  0  0  0
   -0.4105   -1.3934    0.0000 C   0  0  0  0  0  0  0  0  0  0  0  0
   -0.0605   -2.1405    0.0000 C   0  0  0  0  0  0  0  0  0  0  0  0
   -0.4591   -2.8628    0.0000 H   0  0  0  0  0  0  0  0  0  0  0  0
    0.7582   -2.0384    0.0000 N   0  0  0  0  0  0  0  0  0  0  0  0
    1.3219   -2.6407    0.0000 H   0  0  0  0  0  0  0  0  0  0  0  0
    0.9141   -1.2283    0.0000 C   0  0  0  0  0  0  0  0  0  0  0  0
    1.6611   -0.8782    0.0000 H   0  0  0  0  0  0  0  0  0  0  0  0
    0.1918   -0.8296    0.0000 N   0  0  0  0  0  0  0  0  0  0  0  0
   -0.9506    0.1657    0.0000 C   0  0  0  0  0  0  0  0  0  0  0  0
   -0.1405    0.0098    0.0000 C   0  0  0  0  0  0  0  0  0  0  0  0
   -0.6669   -0.6254    0.0000 H   0  0  0  0  0  0  0  0  0  0  0  0
    0.3996    0.6334    0.0000 C   0  0  0  0  0  0  0  0  0  0  0  0
    0.9397    1.2571    0.0000 H   0  0  0  0  0  0  0  0  0  0  0  0
    0.1296    1.4130    0.0000 C   0  0  0  0  0  0  0  0  0  0  0  0
   -0.6806    1.5689    0.0000 C   0  0  0  0  0  0  0  0  0  0  0  0
   -0.9506    2.3484    0.0000 C   0  0  0  0  0  0  0  0  0  0  0  0
   -0.4105    2.9721    0.0000 C   0  0  0  0  0  0  0  0  0  0  0  0
    0.3996    2.8162    0.0000 C   0  0  0  0  0  0  0  0  0  0  0  0
    0.9397    3.4398    0.0000 O   0  0  0  0  0  0  0  0  0  0  0  0
    0.6696    2.0366    0.0000 N   0  0  0  0  0  0  0  0  0  0  0  0
    1.4798    1.8807    0.0000 C   0  0  0  0  0  0  0  0  0  0  0  0
    1.7498    1.1012    0.0000 C   0  0  0  0  0  0  0  0  0  0  0  0
    2.5600    0.9452    0.0000 F   0  0  0  0  0  0  0  0  0  0  0  0
    1.2097    0.4775    0.0000 F   0  0  0  0  0  0  0  0  0  0  0  0
    2.2899    1.7248    0.0000 H   0  0  0  0  0  0  0  0  0  0  0  0
    2.2423    2.1956    0.0000 H   0  0  0  0  0  0  0  0  0  0  0  0
    1.6825    2.6804    0.0000 H   0  0  0  0  0  0  0  0  0  0  0  0
   -0.3020    3.7899    0.0000 H   0  0  0  0  0  0  0  0  0  0  0  0
   -1.0017    3.5475    0.0000 H   0  0  0  0  0  0  0  0  0  0  0  0
   -1.6046    2.8514    0.0000 H   0  0  0  0  0  0  0  0  0  0  0  0
   -1.7446    2.1242    0.0000 H   0  0  0  0  0  0  0  0  0  0  0  0
   -1.2207    0.9452    0.0000 C   0  0  0  0  0  0  0  0  0  0  0  0
   -1.4907    1.7248    0.0000 H   0  0  0  0  0  0  0  0  0  0  0  0
   -3.1110   -0.1461    0.0000 H   0  0  0  0  0  0  0  0  0  0  0  0
  1  2  2  0  0  0  0
  2  3  1  0  0  0  0
  3  4  1  0  0  0  0
  4  5  1  0  0  0  0
  5  6  1  0  0  0  0
  6  7  2  0  0  0  0
  7  8  1  0  0  0  0
  7  9  1  0  0  0  0
  9 10  1  0  0  0  0
  9 11  2  0  0  0  0
 11 12  1  0  0  0  0
 11 13  1  0  0  0  0
 13 14  1  0  0  0  0
 13 15  2  0  0  0  0
  6 15  1  0  0  0  0
 15 16  1  0  0  0  0
  5 17  1  0  0  0  0
  5 18  1  0  0  0  0
  4 19  1  0  0  0  0
  4 20  1  0  0  0  0
  3 21  1  0  0  0  0
  2 22  1  0  0  0  0
 22 23  1  0  0  0  0
 23 24  2  0  0  0  0
 24 25  1  0  0  0  0
 24 26  1  0  0  0  0
 26 27  1  0  0  0  0
 26 28  2  0  0  0  0
 28 29  1  0  0  0  0
 28 30  1  0  0  0  0
 30 31  2  0  0  0  0
 23 31  1  0  0  0  0
 31 32  1  0  0  0  0
 22 33  1  0  0  0  0
 33 34  1  0  0  0  0
 34 35  2  0  0  0  0
 34 36  1  0  0  0  0
 36 37  2  0  0  0  0
 37 38  1  0  0  0  0
 37 39  1  0  0  0  0
 39 40  1  0  0  0  0
 39 41  1  0  0  0  0
 41 42  1  0  0  0  0
 41 43  2  0  0  0  0
 36 43  1  0  0  0  0
 33 44  1  0  0  0  0
 44 45  2  0  0  0  0
 45 46  1  0  0  0  0
 45 47  1  0  0  0  0
 47 48  1  0  0  0  0
 47 49  2  0  0  0  0
 49 50  1  0  0  0  0
 50 51  1  0  0  0  0
 51 52  1  0  0  0  0
 52 53  1  0  0  0  0
 53 54  2  0  0  0  0
 53 55  1  0  0  0  0
 49 55  1  0  0  0  0
 55 56  1  0  0  0  0
 56 57  1  0  0  0  0
 57 58  1  0  0  0  0
 57 59  1  0  0  0  0
 57 60  1  0  0  0  0
 56 61  1  0  0  0  0
 56 62  1  0  0  0  0
 52 63  1  0  0  0  0
 52 64  1  0  0  0  0
 51 65  1  0  0  0  0
 51 66  1  0  0  0  0
 50 67  2  0  0  0  0
 44 67  1  0  0  0  0
 67 68  1  0  0  0  0
 22 69  1  0  0  0  0
M  END
> <Potency>
47.7649783613839

> <pIC50>
4.32089041466341

> <Outcome>
Inactive

> <is_active>
0

$$$$

  Mrv1921 08232120312D          

 66 70  0  0  0  0            999 V2000
   -3.4149    5.1807    0.0000 C   0  0  0  0  0  0  0  0  0  0  0  0
   -2.6048    5.3366    0.0000 N   0  0  0  0  0  0  0  0  0  0  0  0
   -2.3347    6.1162    0.0000 C   0  0  0  0  0  0  0  0  0  0  0  0
   -2.8748    6.7398    0.0000 O   0  0  0  0  0  0  0  0  0  0  0  0
   -1.5246    6.2721    0.0000 C   0  0  0  0  0  0  0  0  0  0  0  0
   -0.9334    6.8475    0.0000 H   0  0  0  0  0  0  0  0  0  0  0  0
   -1.6331    7.0899    0.0000 H   0  0  0  0  0  0  0  0  0  0  0  0
   -0.9845    5.6484    0.0000 C   0  0  0  0  0  0  0  0  0  0  0  0
   -0.1906    5.4242    0.0000 H   0  0  0  0  0  0  0  0  0  0  0  0
   -0.3305    6.1514    0.0000 H   0  0  0  0  0  0  0  0  0  0  0  0
   -1.2546    4.8689    0.0000 C   0  0  0  0  0  0  0  0  0  0  0  0
   -0.7145    4.2452    0.0000 C   0  0  0  0  0  0  0  0  0  0  0  0
   -0.9845    3.4657    0.0000 C   0  0  0  0  0  0  0  0  0  0  0  0
   -0.4444    2.8421    0.0000 N   0  0  0  0  0  0  0  0  0  0  0  0
   -0.7145    2.0625    0.0000 C   0  0  0  0  0  0  0  0  0  0  0  0
   -0.1744    1.4389    0.0000 O   0  0  0  0  0  0  0  0  0  0  0  0
   -1.5246    1.9066    0.0000 C   0  0  0  0  0  0  0  0  0  0  0  0
   -1.8747    1.1595    0.0000 C   0  0  0  0  0  0  0  0  0  0  0  0
   -1.4760    0.4372    0.0000 H   0  0  0  0  0  0  0  0  0  0  0  0
   -2.6933    1.2616    0.0000 N   0  0  0  0  0  0  0  0  0  0  0  0
   -3.2571    0.6593    0.0000 H   0  0  0  0  0  0  0  0  0  0  0  0
   -2.8492    2.0717    0.0000 C   0  0  0  0  0  0  0  0  0  0  0  0
   -3.5963    2.4218    0.0000 H   0  0  0  0  0  0  0  0  0  0  0  0
   -2.1269    2.4704    0.0000 N   0  0  0  0  0  0  0  0  0  0  0  0
    0.3657    2.9980    0.0000 C   0  0  0  0  0  0  0  0  0  0  0  0
    0.9058    2.3743    0.0000 C   0  0  0  0  0  0  0  0  0  0  0  0
    0.6358    1.5948    0.0000 O   0  0  0  0  0  0  0  0  0  0  0  0
    1.7159    2.5302    0.0000 N   0  0  0  0  0  0  0  0  0  0  0  0
    2.2560    1.9066    0.0000 C   0  0  0  0  0  0  0  0  0  0  0  0
    3.0662    2.0625    0.0000 C   0  0  0  0  0  0  0  0  0  0  0  0
    3.6062    1.4389    0.0000 C   0  0  0  0  0  0  0  0  0  0  0  0
    4.4164    1.5948    0.0000 C   0  0  0  0  0  0  0  0  0  0  0  0
    4.6864    2.3743    0.0000 H   0  0  0  0  0  0  0  0  0  0  0  0
    4.9565    0.9711    0.0000 C   0  0  0  0  0  0  0  0  0  0  0  0
    5.7666    1.1270    0.0000 H   0  0  0  0  0  0  0  0  0  0  0  0
    4.6864    0.1916    0.0000 C   0  0  0  0  0  0  0  0  0  0  0  0
    5.2265   -0.4321    0.0000 H   0  0  0  0  0  0  0  0  0  0  0  0
    3.8763    0.0357    0.0000 C   0  0  0  0  0  0  0  0  0  0  0  0
    3.6062   -0.7439    0.0000 F   0  0  0  0  0  0  0  0  0  0  0  0
    3.3362    0.6593    0.0000 C   0  0  0  0  0  0  0  0  0  0  0  0
    2.5261    0.5034    0.0000 H   0  0  0  0  0  0  0  0  0  0  0  0
    3.6573    2.6379    0.0000 H   0  0  0  0  0  0  0  0  0  0  0  0
    2.9576    2.8803    0.0000 H   0  0  0  0  0  0  0  0  0  0  0  0
    1.6648    1.3312    0.0000 H   0  0  0  0  0  0  0  0  0  0  0  0
    2.3646    1.0888    0.0000 H   0  0  0  0  0  0  0  0  0  0  0  0
    1.9860    3.3098    0.0000 H   0  0  0  0  0  0  0  0  0  0  0  0
    0.6358    3.7775    0.0000 C   0  0  0  0  0  0  0  0  0  0  0  0
    0.0957    4.4012    0.0000 C   0  0  0  0  0  0  0  0  0  0  0  0
   -0.1744    3.6216    0.0000 H   0  0  0  0  0  0  0  0  0  0  0  0
    0.3657    5.1807    0.0000 C   0  0  0  0  0  0  0  0  0  0  0  0
    0.4573    6.0006    0.0000 H   0  0  0  0  0  0  0  0  0  0  0  0
    1.1758    5.3366    0.0000 C   0  0  0  0  0  0  0  0  0  0  0  0
    1.4459    6.1162    0.0000 H   0  0  0  0  0  0  0  0  0  0  0  0
    1.7159    4.7130    0.0000 N   0  0  0  0  0  0  0  0  0  0  0  0
    1.4459    3.9334    0.0000 C   0  0  0  0  0  0  0  0  0  0  0  0
    1.1758    3.1539    0.0000 H   0  0  0  0  0  0  0  0  0  0  0  0
    0.0957    2.2184    0.0000 H   0  0  0  0  0  0  0  0  0  0  0  0
   -1.7946    3.3098    0.0000 C   0  0  0  0  0  0  0  0  0  0  0  0
   -2.3347    3.9334    0.0000 C   0  0  0  0  0  0  0  0  0  0  0  0
   -3.1128    4.2077    0.0000 H   0  0  0  0  0  0  0  0  0  0  0  0
   -2.0647    4.7130    0.0000 C   0  0  0  0  0  0  0  0  0  0  0  0
   -2.6080    3.1715    0.0000 H   0  0  0  0  0  0  0  0  0  0  0  0
   -0.4444    5.0248    0.0000 H   0  0  0  0  0  0  0  0  0  0  0  0
   -3.5708    5.9908    0.0000 H   0  0  0  0  0  0  0  0  0  0  0  0
   -4.2251    5.0248    0.0000 H   0  0  0  0  0  0  0  0  0  0  0  0
   -3.2590    4.3706    0.0000 H   0  0  0  0  0  0  0  0  0  0  0  0
  1  2  1  0  0  0  0
  2  3  1  0  0  0  0
  3  4  2  0  0  0  0
  3  5  1  0  0  0  0
  5  6  1  0  0  0  0
  5  7  1  0  0  0  0
  5  8  1  0  0  0  0
  8  9  1  0  0  0  0
  8 10  1  0  0  0  0
  8 11  1  0  0  0  0
 11 12  2  0  0  0  0
 12 13  1  0  0  0  0
 13 14  1  0  0  0  0
 14 15  1  0  0  0  0
 15 16  2  0  0  0  0
 15 17  1  0  0  0  0
 17 18  2  0  0  0  0
 18 19  1  0  0  0  0
 18 20  1  0  0  0  0
 20 21  1  0  0  0  0
 20 22  1  0  0  0  0
 22 23  1  0  0  0  0
 22 24  2  0  0  0  0
 17 24  1  0  0  0  0
 14 25  1  0  0  0  0
 25 26  1  0  0  0  0
 26 27  2  0  0  0  0
 26 28  1  0  0  0  0
 28 29  1  0  0  0  0
 29 30  1  0  0  0  0
 30 31  1  0  0  0  0
 31 32  2  0  0  0  0
 32 33  1  0  0  0  0
 32 34  1  0  0  0  0
 34 35  1  0  0  0  0
 34 36  2  0  0  0  0
 36 37  1  0  0  0  0
 36 38  1  0  0  0  0
 38 39  1  0  0  0  0
 38 40  2  0  0  0  0
 31 40  1  0  0  0  0
 40 41  1  0  0  0  0
 30 42  1  0  0  0  0
 30 43  1  0  0  0  0
 29 44  1  0  0  0  0
 29 45  1  0  0  0  0
 28 46  1  0  0  0  0
 25 47  1  0  0  0  0
 47 48  2  0  0  0  0
 48 49  1  0  0  0  0
 48 50  1  0  0  0  0
 50 51  1  0  0  0  0
 50 52  2  0  0  0  0
 52 53  1  0  0  0  0
 52 54  1  0  0  0  0
 54 55  2  0  0  0  0
 47 55  1  0  0  0  0
 55 56  1  0  0  0  0
 25 57  1  0  0  0  0
 13 58  2  0  0  0  0
 58 59  1  0  0  0  0
 59 60  1  0  0  0  0
 59 61  2  0  0  0  0
  2 61  1  0  0  0  0
 11 61  1  0  0  0  0
 58 62  1  0  0  0  0
 12 63  1  0  0  0  0
  1 64  1  0  0  0  0
  1 65  1  0  0  0  0
  1 66  1  0  0  0  0
M  END
> <Potency>
99.0

> <pIC50>
4.00436480540245

> <Outcome>
Inactive

> <is_active>
0

$$$$

  Mrv1921 08232120312D          

 63 67  0  0  0  0            999 V2000
    1.0015   -4.5927    0.0000 O   0  0  0  0  0  0  0  0  0  0  0  0
    0.7314   -3.8132    0.0000 C   0  0  0  0  0  0  0  0  0  0  0  0
   -0.0787   -3.6573    0.0000 N   0  0  0  0  0  0  0  0  0  0  0  0
   -0.6188   -4.2809    0.0000 C   0  0  0  0  0  0  0  0  0  0  0  0
   -1.4289   -4.1250    0.0000 C   0  0  0  0  0  0  0  0  0  0  0  0
   -1.9690   -4.7486    0.0000 C   0  0  0  0  0  0  0  0  0  0  0  0
   -1.6990   -5.5282    0.0000 C   0  0  0  0  0  0  0  0  0  0  0  0
   -0.8889   -5.6841    0.0000 H   0  0  0  0  0  0  0  0  0  0  0  0
   -2.2391   -6.1518    0.0000 C   0  0  0  0  0  0  0  0  0  0  0  0
   -1.9690   -6.9314    0.0000 H   0  0  0  0  0  0  0  0  0  0  0  0
   -3.0492   -5.9959    0.0000 C   0  0  0  0  0  0  0  0  0  0  0  0
   -3.5893   -6.6196    0.0000 H   0  0  0  0  0  0  0  0  0  0  0  0
   -3.3193   -5.2164    0.0000 C   0  0  0  0  0  0  0  0  0  0  0  0
   -4.1294   -5.0605    0.0000 F   0  0  0  0  0  0  0  0  0  0  0  0
   -2.7792   -4.5927    0.0000 C   0  0  0  0  0  0  0  0  0  0  0  0
   -3.0492   -3.8132    0.0000 H   0  0  0  0  0  0  0  0  0  0  0  0
   -1.3204   -3.3072    0.0000 H   0  0  0  0  0  0  0  0  0  0  0  0
   -2.0201   -3.5496    0.0000 H   0  0  0  0  0  0  0  0  0  0  0  0
   -0.7273   -5.0987    0.0000 H   0  0  0  0  0  0  0  0  0  0  0  0
   -0.0276   -4.8563    0.0000 H   0  0  0  0  0  0  0  0  0  0  0  0
   -0.3488   -2.8777    0.0000 H   0  0  0  0  0  0  0  0  0  0  0  0
    1.2715   -3.1895    0.0000 C   0  0  0  0  0  0  0  0  0  0  0  0
    1.0015   -2.4100    0.0000 C   0  0  0  0  0  0  0  0  0  0  0  0
    0.1913   -2.2541    0.0000 C   0  0  0  0  0  0  0  0  0  0  0  0
   -0.6188   -2.0982    0.0000 H   0  0  0  0  0  0  0  0  0  0  0  0
   -0.0787   -1.4745    0.0000 C   0  0  0  0  0  0  0  0  0  0  0  0
   -0.7024   -0.9344    0.0000 H   0  0  0  0  0  0  0  0  0  0  0  0
    0.4614   -0.8509    0.0000 C   0  0  0  0  0  0  0  0  0  0  0  0
    0.1913   -0.0713    0.0000 H   0  0  0  0  0  0  0  0  0  0  0  0
    1.2715   -1.0068    0.0000 N   0  0  0  0  0  0  0  0  0  0  0  0
    1.5415   -1.7863    0.0000 C   0  0  0  0  0  0  0  0  0  0  0  0
    1.8116   -2.5659    0.0000 H   0  0  0  0  0  0  0  0  0  0  0  0
    2.0816   -3.3454    0.0000 N   0  0  0  0  0  0  0  0  0  0  0  0
    2.3517   -4.1250    0.0000 C   0  0  0  0  0  0  0  0  0  0  0  0
    1.8116   -4.7486    0.0000 O   0  0  0  0  0  0  0  0  0  0  0  0
    3.1618   -4.2809    0.0000 C   0  0  0  0  0  0  0  0  0  0  0  0
    3.5119   -5.0280    0.0000 C   0  0  0  0  0  0  0  0  0  0  0  0
    3.1132   -5.7503    0.0000 H   0  0  0  0  0  0  0  0  0  0  0  0
    4.3305   -4.9259    0.0000 N   0  0  0  0  0  0  0  0  0  0  0  0
    4.8943   -5.5282    0.0000 H   0  0  0  0  0  0  0  0  0  0  0  0
    4.4864   -4.1158    0.0000 C   0  0  0  0  0  0  0  0  0  0  0  0
    5.2335   -3.7657    0.0000 H   0  0  0  0  0  0  0  0  0  0  0  0
    3.7641   -3.7171    0.0000 N   0  0  0  0  0  0  0  0  0  0  0  0
    2.6217   -2.7218    0.0000 C   0  0  0  0  0  0  0  0  0  0  0  0
    2.3517   -1.9423    0.0000 C   0  0  0  0  0  0  0  0  0  0  0  0
    2.0816   -1.1627    0.0000 H   0  0  0  0  0  0  0  0  0  0  0  0
    2.8918   -1.3186    0.0000 C   0  0  0  0  0  0  0  0  0  0  0  0
    3.0477   -0.5085    0.0000 H   0  0  0  0  0  0  0  0  0  0  0  0
    3.7019   -1.4745    0.0000 C   0  0  0  0  0  0  0  0  0  0  0  0
    4.2420   -0.8509    0.0000 H   0  0  0  0  0  0  0  0  0  0  0  0
    3.9720   -2.2541    0.0000 C   0  0  0  0  0  0  0  0  0  0  0  0
    4.7821   -2.4100    0.0000 C   0  0  0  0  0  0  0  0  0  0  0  0
    5.4652   -1.9474    0.0000 C   0  0  0  0  0  0  0  0  0  0  0  0
    6.0053   -1.3237    0.0000 H   0  0  0  0  0  0  0  0  0  0  0  0
    5.1951   -1.1678    0.0000 H   0  0  0  0  0  0  0  0  0  0  0  0
    5.9278   -2.6305    0.0000 O   0  0  0  0  0  0  0  0  0  0  0  0
    5.2447   -3.0931    0.0000 C   0  0  0  0  0  0  0  0  0  0  0  0
    5.9702   -3.4858    0.0000 H   0  0  0  0  0  0  0  0  0  0  0  0
    4.6583   -3.6734    0.0000 H   0  0  0  0  0  0  0  0  0  0  0  0
    4.3280   -3.0988    0.0000 H   0  0  0  0  0  0  0  0  0  0  0  0
    3.4319   -2.8777    0.0000 C   0  0  0  0  0  0  0  0  0  0  0  0
    2.9054   -3.5129    0.0000 H   0  0  0  0  0  0  0  0  0  0  0  0
    0.4614   -3.0336    0.0000 H   0  0  0  0  0  0  0  0  0  0  0  0
  1  2  2  0  0  0  0
  2  3  1  0  0  0  0
  3  4  1  0  0  0  0
  4  5  1  0  0  0  0
  5  6  1  0  0  0  0
  6  7  2  0  0  0  0
  7  8  1  0  0  0  0
  7  9  1  0  0  0  0
  9 10  1  0  0  0  0
  9 11  2  0  0  0  0
 11 12  1  0  0  0  0
 11 13  1  0  0  0  0
 13 14  1  0  0  0  0
 13 15  2  0  0  0  0
  6 15  1  0  0  0  0
 15 16  1  0  0  0  0
  5 17  1  0  0  0  0
  5 18  1  0  0  0  0
  4 19  1  0  0  0  0
  4 20  1  0  0  0  0
  3 21  1  0  0  0  0
  2 22  1  0  0  0  0
 22 23  1  0  0  0  0
 23 24  2  0  0  0  0
 24 25  1  0  0  0  0
 24 26  1  0  0  0  0
 26 27  1  0  0  0  0
 26 28  2  0  0  0  0
 28 29  1  0  0  0  0
 28 30  1  0  0  0  0
 30 31  2  0  0  0  0
 23 31  1  0  0  0  0
 31 32  1  0  0  0  0
 22 33  1  0  0  0  0
 33 34  1  0  0  0  0
 34 35  2  0  0  0  0
 34 36  1  0  0  0  0
 36 37  2  0  0  0  0
 37 38  1  0  0  0  0
 37 39  1  0  0  0  0
 39 40  1  0  0  0  0
 39 41  1  0  0  0  0
 41 42  1  0  0  0  0
 41 43  2  0  0  0  0
 36 43  1  0  0  0  0
 33 44  1  0  0  0  0
 44 45  2  0  0  0  0
 45 46  1  0  0  0  0
 45 47  1  0  0  0  0
 47 48  1  0  0  0  0
 47 49  2  0  0  0  0
 49 50  1  0  0  0  0
 49 51  1  0  0  0  0
 51 52  1  0  0  0  0
 52 53  1  0  0  0  0
 53 54  1  0  0  0  0
 53 55  1  0  0  0  0
 53 56  1  0  0  0  0
 56 57  1  0  0  0  0
 52 57  1  0  0  0  0
 57 58  1  0  0  0  0
 57 59  1  0  0  0  0
 52 60  1  0  0  0  0
 51 61  2  0  0  0  0
 44 61  1  0  0  0  0
 61 62  1  0  0  0  0
 22 63  1  0  0  0  0
M  END
> <Potency>
99.0

> <pIC50>
4.00436480540245

> <Outcome>
Inactive

> <is_active>
0

$$$$

  Mrv1921 08232120312D          

 63 67  0  0  0  0            999 V2000
    5.2883   -3.6573    0.0000 O   0  0  0  0  0  0  0  0  0  0  0  0
    5.0182   -4.4368    0.0000 C   0  0  0  0  0  0  0  0  0  0  0  0
    4.2081   -4.5927    0.0000 N   0  0  0  0  0  0  0  0  0  0  0  0
    3.6680   -3.9691    0.0000 C   0  0  0  0  0  0  0  0  0  0  0  0
    2.8579   -4.1250    0.0000 C   0  0  0  0  0  0  0  0  0  0  0  0
    2.3178   -3.5014    0.0000 C   0  0  0  0  0  0  0  0  0  0  0  0
    1.5077   -3.6573    0.0000 C   0  0  0  0  0  0  0  0  0  0  0  0
    1.2376   -4.4368    0.0000 H   0  0  0  0  0  0  0  0  0  0  0  0
    0.9676   -3.0336    0.0000 C   0  0  0  0  0  0  0  0  0  0  0  0
    0.1574   -3.1895    0.0000 H   0  0  0  0  0  0  0  0  0  0  0  0
    1.2376   -2.2541    0.0000 C   0  0  0  0  0  0  0  0  0  0  0  0
    0.6975   -1.6304    0.0000 H   0  0  0  0  0  0  0  0  0  0  0  0
    2.0477   -2.0982    0.0000 C   0  0  0  0  0  0  0  0  0  0  0  0
    2.3178   -1.3186    0.0000 F   0  0  0  0  0  0  0  0  0  0  0  0
    2.5878   -2.7218    0.0000 C   0  0  0  0  0  0  0  0  0  0  0  0
    3.3980   -2.5659    0.0000 H   0  0  0  0  0  0  0  0  0  0  0  0
    2.2667   -4.7004    0.0000 H   0  0  0  0  0  0  0  0  0  0  0  0
    2.9664   -4.9428    0.0000 H   0  0  0  0  0  0  0  0  0  0  0  0
    4.2592   -3.3937    0.0000 H   0  0  0  0  0  0  0  0  0  0  0  0
    3.5595   -3.1513    0.0000 H   0  0  0  0  0  0  0  0  0  0  0  0
    3.9381   -5.3723    0.0000 H   0  0  0  0  0  0  0  0  0  0  0  0
    5.5583   -5.0605    0.0000 C   0  0  0  0  0  0  0  0  0  0  0  0
    5.2883   -5.8400    0.0000 C   0  0  0  0  0  0  0  0  0  0  0  0
    5.8284   -6.4637    0.0000 C   0  0  0  0  0  0  0  0  0  0  0  0
    6.0984   -5.6841    0.0000 H   0  0  0  0  0  0  0  0  0  0  0  0
    5.5583   -7.2432    0.0000 C   0  0  0  0  0  0  0  0  0  0  0  0
    6.0984   -7.8668    0.0000 H   0  0  0  0  0  0  0  0  0  0  0  0
    4.7482   -7.3991    0.0000 C   0  0  0  0  0  0  0  0  0  0  0  0
    4.4782   -8.1787    0.0000 H   0  0  0  0  0  0  0  0  0  0  0  0
    4.2081   -6.7755    0.0000 N   0  0  0  0  0  0  0  0  0  0  0  0
    4.4782   -5.9959    0.0000 C   0  0  0  0  0  0  0  0  0  0  0  0
    3.6680   -6.1518    0.0000 H   0  0  0  0  0  0  0  0  0  0  0  0
    6.3685   -4.9046    0.0000 N   0  0  0  0  0  0  0  0  0  0  0  0
    6.6385   -4.1250    0.0000 C   0  0  0  0  0  0  0  0  0  0  0  0
    6.0984   -3.5014    0.0000 O   0  0  0  0  0  0  0  0  0  0  0  0
    7.4486   -3.9691    0.0000 C   0  0  0  0  0  0  0  0  0  0  0  0
    7.7987   -3.2220    0.0000 C   0  0  0  0  0  0  0  0  0  0  0  0
    7.4001   -2.4997    0.0000 H   0  0  0  0  0  0  0  0  0  0  0  0
    8.6174   -3.3241    0.0000 N   0  0  0  0  0  0  0  0  0  0  0  0
    9.1811   -2.7218    0.0000 H   0  0  0  0  0  0  0  0  0  0  0  0
    8.7733   -4.1342    0.0000 C   0  0  0  0  0  0  0  0  0  0  0  0
    9.5203   -4.4843    0.0000 H   0  0  0  0  0  0  0  0  0  0  0  0
    8.0510   -4.5329    0.0000 N   0  0  0  0  0  0  0  0  0  0  0  0
    6.9086   -5.5282    0.0000 C   0  0  0  0  0  0  0  0  0  0  0  0
    7.7187   -5.3723    0.0000 C   0  0  0  0  0  0  0  0  0  0  0  0
    7.1923   -4.7371    0.0000 H   0  0  0  0  0  0  0  0  0  0  0  0
    8.2588   -5.9959    0.0000 C   0  0  0  0  0  0  0  0  0  0  0  0
    9.0689   -5.8400    0.0000 H   0  0  0  0  0  0  0  0  0  0  0  0
    7.9887   -6.7755    0.0000 C   0  0  0  0  0  0  0  0  0  0  0  0
    8.5288   -7.3991    0.0000 C   0  0  0  0  0  0  0  0  0  0  0  0
    9.3517   -7.4582    0.0000 C   0  0  0  0  0  0  0  0  0  0  0  0
   10.1618   -7.3023    0.0000 H   0  0  0  0  0  0  0  0  0  0  0  0
    9.6217   -6.6786    0.0000 H   0  0  0  0  0  0  0  0  0  0  0  0
    9.2926   -8.2811    0.0000 O   0  0  0  0  0  0  0  0  0  0  0  0
    8.4697   -8.2220    0.0000 C   0  0  0  0  0  0  0  0  0  0  0  0
    7.8891   -8.8081    0.0000 H   0  0  0  0  0  0  0  0  0  0  0  0
    8.5096   -9.0460    0.0000 H   0  0  0  0  0  0  0  0  0  0  0  0
    7.7460   -7.6594    0.0000 H   0  0  0  0  0  0  0  0  0  0  0  0
    7.1786   -6.9314    0.0000 C   0  0  0  0  0  0  0  0  0  0  0  0
    6.5412   -7.4552    0.0000 H   0  0  0  0  0  0  0  0  0  0  0  0
    6.6385   -6.3077    0.0000 C   0  0  0  0  0  0  0  0  0  0  0  0
    7.4486   -6.1518    0.0000 H   0  0  0  0  0  0  0  0  0  0  0  0
    4.7482   -5.2164    0.0000 H   0  0  0  0  0  0  0  0  0  0  0  0
  1  2  2  0  0  0  0
  2  3  1  0  0  0  0
  3  4  1  0  0  0  0
  4  5  1  0  0  0  0
  5  6  1  0  0  0  0
  6  7  2  0  0  0  0
  7  8  1  0  0  0  0
  7  9  1  0  0  0  0
  9 10  1  0  0  0  0
  9 11  2  0  0  0  0
 11 12  1  0  0  0  0
 11 13  1  0  0  0  0
 13 14  1  0  0  0  0
 13 15  2  0  0  0  0
  6 15  1  0  0  0  0
 15 16  1  0  0  0  0
  5 17  1  0  0  0  0
  5 18  1  0  0  0  0
  4 19  1  0  0  0  0
  4 20  1  0  0  0  0
  3 21  1  0  0  0  0
  2 22  1  0  0  0  0
 22 23  1  0  0  0  0
 23 24  2  0  0  0  0
 24 25  1  0  0  0  0
 24 26  1  0  0  0  0
 26 27  1  0  0  0  0
 26 28  2  0  0  0  0
 28 29  1  0  0  0  0
 28 30  1  0  0  0  0
 30 31  2  0  0  0  0
 23 31  1  0  0  0  0
 31 32  1  0  0  0  0
 22 33  1  0  0  0  0
 33 34  1  0  0  0  0
 34 35  2  0  0  0  0
 34 36  1  0  0  0  0
 36 37  2  0  0  0  0
 37 38  1  0  0  0  0
 37 39  1  0  0  0  0
 39 40  1  0  0  0  0
 39 41  1  0  0  0  0
 41 42  1  0  0  0  0
 41 43  2  0  0  0  0
 36 43  1  0  0  0  0
 33 44  1  0  0  0  0
 44 45  2  0  0  0  0
 45 46  1  0  0  0  0
 45 47  1  0  0  0  0
 47 48  1  0  0  0  0
 47 49  2  0  0  0  0
 49 50  1  0  0  0  0
 50 51  1  0  0  0  0
 51 52  1  0  0  0  0
 51 53  1  0  0  0  0
 51 54  1  0  0  0  0
 54 55  1  0  0  0  0
 50 55  1  0  0  0  0
 55 56  1  0  0  0  0
 55 57  1  0  0  0  0
 50 58  1  0  0  0  0
 49 59  1  0  0  0  0
 59 60  1  0  0  0  0
 59 61  2  0  0  0  0
 44 61  1  0  0  0  0
 61 62  1  0  0  0  0
 22 63  1  0  0  0  0
M  END
> <Potency>
22.6971238146488

> <pIC50>
4.644029173228352

> <Outcome>
Inactive

> <is_active>
0

$$$$

  Mrv1921 08232120312D          

 65 69  0  0  0  0            999 V2000
    5.2883   -3.6573    0.0000 O   0  0  0  0  0  0  0  0  0  0  0  0
    5.0182   -4.4368    0.0000 C   0  0  0  0  0  0  0  0  0  0  0  0
    4.2081   -4.5927    0.0000 N   0  0  0  0  0  0  0  0  0  0  0  0
    3.6680   -3.9691    0.0000 C   0  0  0  0  0  0  0  0  0  0  0  0
    2.8579   -4.1250    0.0000 C   0  0  0  0  0  0  0  0  0  0  0  0
    2.3178   -3.5014    0.0000 C   0  0  0  0  0  0  0  0  0  0  0  0
    1.5077   -3.6573    0.0000 C   0  0  0  0  0  0  0  0  0  0  0  0
    1.2376   -4.4368    0.0000 H   0  0  0  0  0  0  0  0  0  0  0  0
    0.9676   -3.0336    0.0000 C   0  0  0  0  0  0  0  0  0  0  0  0
    0.1574   -3.1895    0.0000 H   0  0  0  0  0  0  0  0  0  0  0  0
    1.2376   -2.2541    0.0000 C   0  0  0  0  0  0  0  0  0  0  0  0
    0.6975   -1.6304    0.0000 H   0  0  0  0  0  0  0  0  0  0  0  0
    2.0477   -2.0982    0.0000 C   0  0  0  0  0  0  0  0  0  0  0  0
    2.3178   -1.3186    0.0000 F   0  0  0  0  0  0  0  0  0  0  0  0
    2.5878   -2.7218    0.0000 C   0  0  0  0  0  0  0  0  0  0  0  0
    3.3980   -2.5659    0.0000 H   0  0  0  0  0  0  0  0  0  0  0  0
    2.2667   -4.7004    0.0000 H   0  0  0  0  0  0  0  0  0  0  0  0
    2.9664   -4.9428    0.0000 H   0  0  0  0  0  0  0  0  0  0  0  0
    4.2592   -3.3937    0.0000 H   0  0  0  0  0  0  0  0  0  0  0  0
    3.5595   -3.1513    0.0000 H   0  0  0  0  0  0  0  0  0  0  0  0
    3.9381   -5.3723    0.0000 H   0  0  0  0  0  0  0  0  0  0  0  0
    5.5583   -5.0605    0.0000 C   0  0  0  0  0  0  0  0  0  0  0  0
    5.2883   -5.8400    0.0000 C   0  0  0  0  0  0  0  0  0  0  0  0
    5.8284   -6.4637    0.0000 C   0  0  0  0  0  0  0  0  0  0  0  0
    6.0984   -5.6841    0.0000 H   0  0  0  0  0  0  0  0  0  0  0  0
    5.5583   -7.2432    0.0000 C   0  0  0  0  0  0  0  0  0  0  0  0
    6.0984   -7.8668    0.0000 H   0  0  0  0  0  0  0  0  0  0  0  0
    4.7482   -7.3991    0.0000 C   0  0  0  0  0  0  0  0  0  0  0  0
    4.4782   -8.1787    0.0000 H   0  0  0  0  0  0  0  0  0  0  0  0
    4.2081   -6.7755    0.0000 N   0  0  0  0  0  0  0  0  0  0  0  0
    4.4782   -5.9959    0.0000 C   0  0  0  0  0  0  0  0  0  0  0  0
    3.6680   -6.1518    0.0000 H   0  0  0  0  0  0  0  0  0  0  0  0
    6.3685   -4.9046    0.0000 N   0  0  0  0  0  0  0  0  0  0  0  0
    6.6385   -4.1250    0.0000 C   0  0  0  0  0  0  0  0  0  0  0  0
    6.0984   -3.5014    0.0000 O   0  0  0  0  0  0  0  0  0  0  0  0
    7.4486   -3.9691    0.0000 C   0  0  0  0  0  0  0  0  0  0  0  0
    7.7987   -3.2220    0.0000 C   0  0  0  0  0  0  0  0  0  0  0  0
    7.4001   -2.4997    0.0000 H   0  0  0  0  0  0  0  0  0  0  0  0
    8.6174   -3.3241    0.0000 N   0  0  0  0  0  0  0  0  0  0  0  0
    9.1811   -2.7218    0.0000 H   0  0  0  0  0  0  0  0  0  0  0  0
    8.7733   -4.1342    0.0000 C   0  0  0  0  0  0  0  0  0  0  0  0
    9.5203   -4.4843    0.0000 H   0  0  0  0  0  0  0  0  0  0  0  0
    8.0510   -4.5329    0.0000 N   0  0  0  0  0  0  0  0  0  0  0  0
    6.9086   -5.5282    0.0000 C   0  0  0  0  0  0  0  0  0  0  0  0
    7.7187   -5.3723    0.0000 C   0  0  0  0  0  0  0  0  0  0  0  0
    7.1923   -4.7371    0.0000 H   0  0  0  0  0  0  0  0  0  0  0  0
    8.2588   -5.9959    0.0000 C   0  0  0  0  0  0  0  0  0  0  0  0
    9.0689   -5.8400    0.0000 H   0  0  0  0  0  0  0  0  0  0  0  0
    7.9887   -6.7755    0.0000 C   0  0  0  0  0  0  0  0  0  0  0  0
    8.5288   -7.3991    0.0000 C   0  0  0  0  0  0  0  0  0  0  0  0
    8.2588   -8.1787    0.0000 N   0  0  0  0  0  0  0  0  0  0  0  0
    8.7307   -8.8553    0.0000 C   0  0  0  0  0  0  0  0  0  0  0  0
    9.5556   -8.8713    0.0000 H   0  0  0  0  0  0  0  0  0  0  0  0
    8.2330   -9.5133    0.0000 C   0  0  0  0  0  0  0  0  0  0  0  0
    8.4727  -10.3027    0.0000 H   0  0  0  0  0  0  0  0  0  0  0  0
    7.4534   -9.2433    0.0000 C   0  0  0  0  0  0  0  0  0  0  0  0
    6.7768   -9.7152    0.0000 H   0  0  0  0  0  0  0  0  0  0  0  0
    7.4694   -8.4184    0.0000 N   0  0  0  0  0  0  0  0  0  0  0  0
    9.3228   -7.6234    0.0000 H   0  0  0  0  0  0  0  0  0  0  0  0
    9.1828   -6.8962    0.0000 H   0  0  0  0  0  0  0  0  0  0  0  0
    7.1786   -6.9314    0.0000 C   0  0  0  0  0  0  0  0  0  0  0  0
    6.9086   -7.7109    0.0000 H   0  0  0  0  0  0  0  0  0  0  0  0
    6.6385   -6.3077    0.0000 C   0  0  0  0  0  0  0  0  0  0  0  0
    7.4486   -6.1518    0.0000 H   0  0  0  0  0  0  0  0  0  0  0  0
    4.7482   -5.2164    0.0000 H   0  0  0  0  0  0  0  0  0  0  0  0
  1  2  2  0  0  0  0
  2  3  1  0  0  0  0
  3  4  1  0  0  0  0
  4  5  1  0  0  0  0
  5  6  1  0  0  0  0
  6  7  2  0  0  0  0
  7  8  1  0  0  0  0
  7  9  1  0  0  0  0
  9 10  1  0  0  0  0
  9 11  2  0  0  0  0
 11 12  1  0  0  0  0
 11 13  1  0  0  0  0
 13 14  1  0  0  0  0
 13 15  2  0  0  0  0
  6 15  1  0  0  0  0
 15 16  1  0  0  0  0
  5 17  1  0  0  0  0
  5 18  1  0  0  0  0
  4 19  1  0  0  0  0
  4 20  1  0  0  0  0
  3 21  1  0  0  0  0
  2 22  1  0  0  0  0
 22 23  1  0  0  0  0
 23 24  2  0  0  0  0
 24 25  1  0  0  0  0
 24 26  1  0  0  0  0
 26 27  1  0  0  0  0
 26 28  2  0  0  0  0
 28 29  1  0  0  0  0
 28 30  1  0  0  0  0
 30 31  2  0  0  0  0
 23 31  1  0  0  0  0
 31 32  1  0  0  0  0
 22 33  1  0  0  0  0
 33 34  1  0  0  0  0
 34 35  2  0  0  0  0
 34 36  1  0  0  0  0
 36 37  2  0  0  0  0
 37 38  1  0  0  0  0
 37 39  1  0  0  0  0
 39 40  1  0  0  0  0
 39 41  1  0  0  0  0
 41 42  1  0  0  0  0
 41 43  2  0  0  0  0
 36 43  1  0  0  0  0
 33 44  1  0  0  0  0
 44 45  2  0  0  0  0
 45 46  1  0  0  0  0
 45 47  1  0  0  0  0
 47 48  1  0  0  0  0
 47 49  2  0  0  0  0
 49 50  1  0  0  0  0
 50 51  1  0  0  0  0
 51 52  1  0  0  0  0
 52 53  1  0  0  0  0
 52 54  2  0  0  0  0
 54 55  1  0  0  0  0
 54 56  1  0  0  0  0
 56 57  1  0  0  0  0
 56 58  2  0  0  0  0
 51 58  1  0  0  0  0
 50 59  1  0  0  0  0
 50 60  1  0  0  0  0
 49 61  1  0  0  0  0
 61 62  1  0  0  0  0
 61 63  2  0  0  0  0
 44 63  1  0  0  0  0
 63 64  1  0  0  0  0
 22 65  1  0  0  0  0
M  END
> <Potency>
35.4776839816408

> <pIC50>
4.4500447390890026

> <Outcome>
Inactive

> <is_active>
0

$$$$

  Mrv1921 08232120312D          

 64 68  0  0  0  0            999 V2000
   -0.4275   -7.0677    0.0000 O   0  0  0  0  0  0  0  0  0  0  0  0
   -0.6975   -6.2882    0.0000 C   0  0  0  0  0  0  0  0  0  0  0  0
   -1.5077   -6.1323    0.0000 N   0  0  0  0  0  0  0  0  0  0  0  0
   -2.0477   -6.7559    0.0000 C   0  0  0  0  0  0  0  0  0  0  0  0
   -2.8579   -6.6000    0.0000 C   0  0  0  0  0  0  0  0  0  0  0  0
   -3.3980   -7.2236    0.0000 C   0  0  0  0  0  0  0  0  0  0  0  0
   -3.1279   -8.0032    0.0000 C   0  0  0  0  0  0  0  0  0  0  0  0
   -2.3178   -8.1591    0.0000 H   0  0  0  0  0  0  0  0  0  0  0  0
   -3.6680   -8.6268    0.0000 C   0  0  0  0  0  0  0  0  0  0  0  0
   -3.3980   -9.4064    0.0000 H   0  0  0  0  0  0  0  0  0  0  0  0
   -4.4782   -8.4709    0.0000 C   0  0  0  0  0  0  0  0  0  0  0  0
   -5.0182   -9.0946    0.0000 H   0  0  0  0  0  0  0  0  0  0  0  0
   -4.7482   -7.6914    0.0000 C   0  0  0  0  0  0  0  0  0  0  0  0
   -5.5583   -7.5355    0.0000 F   0  0  0  0  0  0  0  0  0  0  0  0
   -4.2081   -7.0677    0.0000 C   0  0  0  0  0  0  0  0  0  0  0  0
   -4.4782   -6.2882    0.0000 H   0  0  0  0  0  0  0  0  0  0  0  0
   -2.7493   -5.7822    0.0000 H   0  0  0  0  0  0  0  0  0  0  0  0
   -3.4491   -6.0246    0.0000 H   0  0  0  0  0  0  0  0  0  0  0  0
   -2.1563   -7.5737    0.0000 H   0  0  0  0  0  0  0  0  0  0  0  0
   -1.4566   -7.3313    0.0000 H   0  0  0  0  0  0  0  0  0  0  0  0
   -1.7777   -5.3527    0.0000 H   0  0  0  0  0  0  0  0  0  0  0  0
   -0.1574   -5.6645    0.0000 C   0  0  0  0  0  0  0  0  0  0  0  0
   -0.4275   -4.8850    0.0000 C   0  0  0  0  0  0  0  0  0  0  0  0
   -1.2376   -4.7291    0.0000 C   0  0  0  0  0  0  0  0  0  0  0  0
   -2.0477   -4.5732    0.0000 H   0  0  0  0  0  0  0  0  0  0  0  0
   -1.5077   -3.9495    0.0000 C   0  0  0  0  0  0  0  0  0  0  0  0
   -2.1313   -3.4094    0.0000 H   0  0  0  0  0  0  0  0  0  0  0  0
   -0.9676   -3.3259    0.0000 C   0  0  0  0  0  0  0  0  0  0  0  0
   -1.2376   -2.5463    0.0000 H   0  0  0  0  0  0  0  0  0  0  0  0
   -0.1574   -3.4818    0.0000 N   0  0  0  0  0  0  0  0  0  0  0  0
    0.1126   -4.2613    0.0000 C   0  0  0  0  0  0  0  0  0  0  0  0
    0.3827   -5.0409    0.0000 H   0  0  0  0  0  0  0  0  0  0  0  0
    0.6527   -5.8204    0.0000 N   0  0  0  0  0  0  0  0  0  0  0  0
    0.9227   -6.6000    0.0000 C   0  0  0  0  0  0  0  0  0  0  0  0
    0.3827   -7.2236    0.0000 O   0  0  0  0  0  0  0  0  0  0  0  0
    1.7329   -6.7559    0.0000 C   0  0  0  0  0  0  0  0  0  0  0  0
    2.0829   -7.5030    0.0000 C   0  0  0  0  0  0  0  0  0  0  0  0
    1.6843   -8.2253    0.0000 H   0  0  0  0  0  0  0  0  0  0  0  0
    2.9016   -7.4009    0.0000 N   0  0  0  0  0  0  0  0  0  0  0  0
    3.4654   -8.0032    0.0000 H   0  0  0  0  0  0  0  0  0  0  0  0
    3.0575   -6.5908    0.0000 C   0  0  0  0  0  0  0  0  0  0  0  0
    3.8046   -6.2407    0.0000 H   0  0  0  0  0  0  0  0  0  0  0  0
    2.3352   -6.1921    0.0000 N   0  0  0  0  0  0  0  0  0  0  0  0
    1.1928   -5.1968    0.0000 C   0  0  0  0  0  0  0  0  0  0  0  0
    0.9227   -4.4173    0.0000 C   0  0  0  0  0  0  0  0  0  0  0  0
    0.6527   -3.6377    0.0000 H   0  0  0  0  0  0  0  0  0  0  0  0
    1.4628   -3.7936    0.0000 C   0  0  0  0  0  0  0  0  0  0  0  0
    1.6187   -2.9835    0.0000 H   0  0  0  0  0  0  0  0  0  0  0  0
    2.2730   -3.9495    0.0000 C   0  0  0  0  0  0  0  0  0  0  0  0
    2.8131   -3.3259    0.0000 H   0  0  0  0  0  0  0  0  0  0  0  0
    2.5430   -4.7291    0.0000 C   0  0  0  0  0  0  0  0  0  0  0  0
    3.3531   -4.8850    0.0000 O   0  0  0  0  0  0  0  0  0  0  0  0
    3.8932   -4.2613    0.0000 C   0  0  0  0  0  0  0  0  0  0  0  0
    3.6232   -3.4818    0.0000 C   0  0  0  0  0  0  0  0  0  0  0  0
    3.0831   -4.1054    0.0000 H   0  0  0  0  0  0  0  0  0  0  0  0
    4.1633   -2.8582    0.0000 C   0  0  0  0  0  0  0  0  0  0  0  0
    3.8932   -2.0786    0.0000 H   0  0  0  0  0  0  0  0  0  0  0  0
    4.9734   -3.0141    0.0000 C   0  0  0  0  0  0  0  0  0  0  0  0
    5.5135   -2.3904    0.0000 H   0  0  0  0  0  0  0  0  0  0  0  0
    5.2435   -3.7936    0.0000 N   0  0  0  0  0  0  0  0  0  0  0  0
    4.7034   -4.4173    0.0000 N   0  0  0  0  0  0  0  0  0  0  0  0
    2.0029   -5.3527    0.0000 C   0  0  0  0  0  0  0  0  0  0  0  0
    1.4765   -5.9879    0.0000 H   0  0  0  0  0  0  0  0  0  0  0  0
   -0.9676   -5.5086    0.0000 H   0  0  0  0  0  0  0  0  0  0  0  0
  1  2  2  0  0  0  0
  2  3  1  0  0  0  0
  3  4  1  0  0  0  0
  4  5  1  0  0  0  0
  5  6  1  0  0  0  0
  6  7  2  0  0  0  0
  7  8  1  0  0  0  0
  7  9  1  0  0  0  0
  9 10  1  0  0  0  0
  9 11  2  0  0  0  0
 11 12  1  0  0  0  0
 11 13  1  0  0  0  0
 13 14  1  0  0  0  0
 13 15  2  0  0  0  0
  6 15  1  0  0  0  0
 15 16  1  0  0  0  0
  5 17  1  0  0  0  0
  5 18  1  0  0  0  0
  4 19  1  0  0  0  0
  4 20  1  0  0  0  0
  3 21  1  0  0  0  0
  2 22  1  0  0  0  0
 22 23  1  0  0  0  0
 23 24  2  0  0  0  0
 24 25  1  0  0  0  0
 24 26  1  0  0  0  0
 26 27  1  0  0  0  0
 26 28  2  0  0  0  0
 28 29  1  0  0  0  0
 28 30  1  0  0  0  0
 30 31  2  0  0  0  0
 23 31  1  0  0  0  0
 31 32  1  0  0  0  0
 22 33  1  0  0  0  0
 33 34  1  0  0  0  0
 34 35  2  0  0  0  0
 34 36  1  0  0  0  0
 36 37  2  0  0  0  0
 37 38  1  0  0  0  0
 37 39  1  0  0  0  0
 39 40  1  0  0  0  0
 39 41  1  0  0  0  0
 41 42  1  0  0  0  0
 41 43  2  0  0  0  0
 36 43  1  0  0  0  0
 33 44  1  0  0  0  0
 44 45  2  0  0  0  0
 45 46  1  0  0  0  0
 45 47  1  0  0  0  0
 47 48  1  0  0  0  0
 47 49  2  0  0  0  0
 49 50  1  0  0  0  0
 49 51  1  0  0  0  0
 51 52  1  0  0  0  0
 52 53  1  0  0  0  0
 53 54  1  0  0  0  0
 54 55  1  0  0  0  0
 54 56  2  0  0  0  0
 56 57  1  0  0  0  0
 56 58  1  0  0  0  0
 58 59  1  0  0  0  0
 58 60  2  0  0  0  0
 60 61  1  0  0  0  0
 53 61  2  0  0  0  0
 51 62  2  0  0  0  0
 44 62  1  0  0  0  0
 62 63  1  0  0  0  0
 22 64  1  0  0  0  0
M  END
> <Potency>
99.0

> <pIC50>
4.00436480540245

> <Outcome>
Inactive

> <is_active>
0

$$$$

  Mrv1921 08232120312D          

 47 50  0  0  0  0            999 V2000
    2.8579   -4.9500    0.0000 C   0  0  0  0  0  0  0  0  0  0  0  0
    2.8579   -4.1250    0.0000 C   0  0  0  0  0  0  0  0  0  0  0  0
    2.1434   -3.7125    0.0000 C   0  0  0  0  0  0  0  0  0  0  0  0
    1.3198   -3.7605    0.0000 H   0  0  0  0  0  0  0  0  0  0  0  0
    1.6901   -4.4018    0.0000 H   0  0  0  0  0  0  0  0  0  0  0  0
    2.1434   -2.8875    0.0000 N   0  0  0  0  0  0  0  0  0  0  0  0
    1.4289   -2.4750    0.0000 C   0  0  0  0  0  0  0  0  0  0  0  0
    0.7145   -2.8875    0.0000 O   0  0  0  0  0  0  0  0  0  0  0  0
    1.4289   -1.6500    0.0000 C   0  0  0  0  0  0  0  0  0  0  0  0
    0.7145   -1.2375    0.0000 C   0  0  0  0  0  0  0  0  0  0  0  0
    0.0000   -1.6500    0.0000 H   0  0  0  0  0  0  0  0  0  0  0  0
    0.7145   -0.4125    0.0000 C   0  0  0  0  0  0  0  0  0  0  0  0
    0.0000    0.0000    0.0000 O   0  0  0  0  0  0  0  0  0  0  0  0
    1.4289    0.0000    0.0000 N   0  0  0  0  0  0  0  0  0  0  0  0
    1.4289    0.8250    0.0000 H   0  0  0  0  0  0  0  0  0  0  0  0
    2.1434   -0.4125    0.0000 C   0  0  0  0  0  0  0  0  0  0  0  0
    2.8579    0.0000    0.0000 C   0  0  0  0  0  0  0  0  0  0  0  0
    3.5724   -0.4125    0.0000 C   0  0  0  0  0  0  0  0  0  0  0  0
    3.5724   -1.2375    0.0000 C   0  0  0  0  0  0  0  0  0  0  0  0
    2.8579   -1.6500    0.0000 C   0  0  0  0  0  0  0  0  0  0  0  0
    2.1434   -2.0625    0.0000 H   0  0  0  0  0  0  0  0  0  0  0  0
    2.1434   -1.2375    0.0000 C   0  0  0  0  0  0  0  0  0  0  0  0
    4.2868   -1.6500    0.0000 H   0  0  0  0  0  0  0  0  0  0  0  0
    4.2868   -0.0000    0.0000 H   0  0  0  0  0  0  0  0  0  0  0  0
    2.8579    0.8250    0.0000 H   0  0  0  0  0  0  0  0  0  0  0  0
    2.8579   -2.4750    0.0000 C   0  0  0  0  0  0  0  0  0  0  0  0
    3.5724   -2.0625    0.0000 H   0  0  0  0  0  0  0  0  0  0  0  0
    2.8579   -3.3000    0.0000 H   0  0  0  0  0  0  0  0  0  0  0  0
    3.5724   -2.8875    0.0000 C   0  0  0  0  0  0  0  0  0  0  0  0
    4.3476   -3.1697    0.0000 H   0  0  0  0  0  0  0  0  0  0  0  0
    4.3476   -2.6053    0.0000 H   0  0  0  0  0  0  0  0  0  0  0  0
    3.5724   -3.7125    0.0000 N   0  0  0  0  0  0  0  0  0  0  0  0
    4.2868   -4.1250    0.0000 C   0  0  0  0  0  0  0  0  0  0  0  0
    5.0013   -3.7125    0.0000 C   0  0  0  0  0  0  0  0  0  0  0  0
    5.4728   -3.0355    0.0000 H   0  0  0  0  0  0  0  0  0  0  0  0
    5.7158   -4.1250    0.0000 C   0  0  0  0  0  0  0  0  0  0  0  0
    6.4302   -3.7125    0.0000 H   0  0  0  0  0  0  0  0  0  0  0  0
    5.7158   -4.9500    0.0000 C   0  0  0  0  0  0  0  0  0  0  0  0
    6.4302   -5.3625    0.0000 H   0  0  0  0  0  0  0  0  0  0  0  0
    5.0013   -5.3625    0.0000 C   0  0  0  0  0  0  0  0  0  0  0  0
    5.0013   -6.1875    0.0000 Cl  0  0  0  0  0  0  0  0  0  0  0  0
    4.2868   -4.9500    0.0000 C   0  0  0  0  0  0  0  0  0  0  0  0
    4.0733   -5.7469    0.0000 H   0  0  0  0  0  0  0  0  0  0  0  0
    3.5724   -4.5375    0.0000 H   0  0  0  0  0  0  0  0  0  0  0  0
    2.0329   -4.9500    0.0000 H   0  0  0  0  0  0  0  0  0  0  0  0
    2.8579   -5.7750    0.0000 H   0  0  0  0  0  0  0  0  0  0  0  0
    3.6829   -4.9500    0.0000 H   0  0  0  0  0  0  0  0  0  0  0  0
  1  2  1  0  0  0  0
  2  3  1  0  0  0  0
  3  4  1  0  0  0  0
  3  5  1  0  0  0  0
  3  6  1  0  0  0  0
  6  7  1  0  0  0  0
  7  8  2  0  0  0  0
  7  9  1  0  0  0  0
  9 10  4  0  0  0  0
 10 11  1  0  0  0  0
 10 12  4  0  0  0  0
 12 13  2  0  0  0  0
 12 14  4  0  0  0  0
 14 15  1  0  0  0  0
 14 16  4  0  0  0  0
 16 17  4  0  0  0  0
 17 18  4  0  0  0  0
 18 19  4  0  0  0  0
 19 20  4  0  0  0  0
 20 21  1  0  0  0  0
 20 22  4  0  0  0  0
  9 22  4  0  0  0  0
 16 22  4  0  0  0  0
 19 23  1  0  0  0  0
 18 24  1  0  0  0  0
 17 25  1  0  0  0  0
  6 26  1  0  0  0  0
 26 27  1  0  0  0  0
 26 28  1  0  0  0  0
 26 29  1  0  0  0  0
 29 30  1  0  0  0  0
 29 31  1  0  0  0  0
 29 32  1  0  0  0  0
  2 32  1  0  0  0  0
 32 33  1  0  0  0  0
 33 34  2  0  0  0  0
 34 35  1  0  0  0  0
 34 36  1  0  0  0  0
 36 37  1  0  0  0  0
 36 38  2  0  0  0  0
 38 39  1  0  0  0  0
 38 40  1  0  0  0  0
 40 41  1  0  0  0  0
 40 42  2  0  0  0  0
 33 42  1  0  0  0  0
 42 43  1  0  0  0  0
  2 44  1  0  0  0  0
  1 45  1  0  0  0  0
  1 46  1  0  0  0  0
  1 47  1  0  0  0  0
M  END
> <Potency>
14.7443805057112

> <pIC50>
4.83137346988079

> <Outcome>
Inactive

> <is_active>
0

$$$$

  Mrv1921 08232120312D          

 38 41  0  0  0  0            999 V2000
    2.1434   -2.8875    0.0000 O   0  0  0  0  0  0  0  0  0  0  0  0
    1.4289   -2.4750    0.0000 C   0  0  0  0  0  0  0  0  0  0  0  0
    0.7145   -2.8875    0.0000 N   0  0  0  0  0  0  0  0  0  0  0  0
    0.7145   -3.7125    0.0000 C   0  0  0  0  0  0  0  0  0  0  0  0
    1.4289   -4.1250    0.0000 C   0  0  0  0  0  0  0  0  0  0  0  0
    2.1434   -3.7125    0.0000 H   0  0  0  0  0  0  0  0  0  0  0  0
    1.4289   -4.9500    0.0000 N   0  0  0  0  0  0  0  0  0  0  0  0
    0.7145   -5.3625    0.0000 C   0  0  0  0  0  0  0  0  0  0  0  0
    0.7145   -6.1875    0.0000 H   0  0  0  0  0  0  0  0  0  0  0  0
    0.0000   -4.9500    0.0000 C   0  0  0  0  0  0  0  0  0  0  0  0
   -0.7145   -5.3625    0.0000 C   0  0  0  0  0  0  0  0  0  0  0  0
   -1.4289   -4.9500    0.0000 C   0  0  0  0  0  0  0  0  0  0  0  0
   -1.4289   -4.1250    0.0000 C   0  0  0  0  0  0  0  0  0  0  0  0
   -0.7145   -3.7125    0.0000 C   0  0  0  0  0  0  0  0  0  0  0  0
   -0.7145   -2.8875    0.0000 H   0  0  0  0  0  0  0  0  0  0  0  0
    0.0000   -4.1250    0.0000 C   0  0  0  0  0  0  0  0  0  0  0  0
   -2.1434   -3.7125    0.0000 H   0  0  0  0  0  0  0  0  0  0  0  0
   -2.1434   -5.3625    0.0000 H   0  0  0  0  0  0  0  0  0  0  0  0
   -0.7145   -6.1875    0.0000 H   0  0  0  0  0  0  0  0  0  0  0  0
    0.0000   -2.4750    0.0000 H   0  0  0  0  0  0  0  0  0  0  0  0
    1.4289   -1.6500    0.0000 N   0  0  0  0  0  0  0  0  0  0  0  0
    0.7145   -1.2375    0.0000 C   0  0  0  0  0  0  0  0  0  0  0  0
   -0.1091   -1.2855    0.0000 H   0  0  0  0  0  0  0  0  0  0  0  0
    0.2611   -1.9268    0.0000 H   0  0  0  0  0  0  0  0  0  0  0  0
    0.7145   -0.4125    0.0000 C   0  0  0  0  0  0  0  0  0  0  0  0
    0.2611    0.2768    0.0000 H   0  0  0  0  0  0  0  0  0  0  0  0
   -0.1091   -0.3645    0.0000 H   0  0  0  0  0  0  0  0  0  0  0  0
    1.4289    0.0000    0.0000 O   0  0  0  0  0  0  0  0  0  0  0  0
    2.1434   -0.4125    0.0000 C   0  0  0  0  0  0  0  0  0  0  0  0
    2.8579    0.0000    0.0000 C   0  0  0  0  0  0  0  0  0  0  0  0
    3.5724   -0.4125    0.0000 C   0  0  0  0  0  0  0  0  0  0  0  0
    3.5724   -1.2375    0.0000 C   0  0  0  0  0  0  0  0  0  0  0  0
    4.2868   -1.6500    0.0000 Cl  0  0  0  0  0  0  0  0  0  0  0  0
    2.8579   -1.6500    0.0000 C   0  0  0  0  0  0  0  0  0  0  0  0
    2.8579   -2.4750    0.0000 H   0  0  0  0  0  0  0  0  0  0  0  0
    2.1434   -1.2375    0.0000 C   0  0  0  0  0  0  0  0  0  0  0  0
    4.2868   -0.0000    0.0000 H   0  0  0  0  0  0  0  0  0  0  0  0
    2.8579    0.8250    0.0000 H   0  0  0  0  0  0  0  0  0  0  0  0
  1  2  2  0  0  0  0
  2  3  1  0  0  0  0
  3  4  1  0  0  0  0
  4  5  2  0  0  0  0
  5  6  1  0  0  0  0
  5  7  1  0  0  0  0
  7  8  2  0  0  0  0
  8  9  1  0  0  0  0
  8 10  1  0  0  0  0
 10 11  2  0  0  0  0
 11 12  1  0  0  0  0
 12 13  2  0  0  0  0
 13 14  1  0  0  0  0
 14 15  1  0  0  0  0
 14 16  2  0  0  0  0
  4 16  1  0  0  0  0
 10 16  1  0  0  0  0
 13 17  1  0  0  0  0
 12 18  1  0  0  0  0
 11 19  1  0  0  0  0
  3 20  1  0  0  0  0
  2 21  1  0  0  0  0
 21 22  1  0  0  0  0
 22 23  1  0  0  0  0
 22 24  1  0  0  0  0
 22 25  1  0  0  0  0
 25 26  1  0  0  0  0
 25 27  1  0  0  0  0
 25 28  1  0  0  0  0
 28 29  1  0  0  0  0
 29 30  2  0  0  0  0
 30 31  1  0  0  0  0
 31 32  2  0  0  0  0
 32 33  1  0  0  0  0
 32 34  1  0  0  0  0
 34 35  1  0  0  0  0
 34 36  2  0  0  0  0
 21 36  1  0  0  0  0
 29 36  1  0  0  0  0
 31 37  1  0  0  0  0
 30 38  1  0  0  0  0
M  END
> <Potency>
11.3881755887077

> <pIC50>
4.943545845299322

> <Outcome>
Inactive

> <is_active>
0

$$$$

  Mrv1921 08232120312D          

 43 46  0  0  0  0            999 V2000
    2.1434   -2.8875    0.0000 O   0  0  0  0  0  0  0  0  0  0  0  0
    1.4289   -2.4750    0.0000 C   0  0  0  0  0  0  0  0  0  0  0  0
    1.4289   -1.6500    0.0000 C   0  0  0  0  0  0  0  0  0  0  0  0
    0.7145   -1.2375    0.0000 C   0  0  0  0  0  0  0  0  0  0  0  0
    0.0000   -1.6500    0.0000 H   0  0  0  0  0  0  0  0  0  0  0  0
    0.7145   -0.4125    0.0000 C   0  0  0  0  0  0  0  0  0  0  0  0
    0.0000    0.0000    0.0000 O   0  0  0  0  0  0  0  0  0  0  0  0
    1.4289    0.0000    0.0000 N   0  0  0  0  0  0  0  0  0  0  0  0
    1.4289    0.8250    0.0000 H   0  0  0  0  0  0  0  0  0  0  0  0
    2.1434   -0.4125    0.0000 C   0  0  0  0  0  0  0  0  0  0  0  0
    2.8579    0.0000    0.0000 C   0  0  0  0  0  0  0  0  0  0  0  0
    3.5724   -0.4125    0.0000 C   0  0  0  0  0  0  0  0  0  0  0  0
    3.5724   -1.2375    0.0000 C   0  0  0  0  0  0  0  0  0  0  0  0
    2.8579   -1.6500    0.0000 C   0  0  0  0  0  0  0  0  0  0  0  0
    2.8579   -2.4750    0.0000 H   0  0  0  0  0  0  0  0  0  0  0  0
    2.1434   -1.2375    0.0000 C   0  0  0  0  0  0  0  0  0  0  0  0
    4.2868   -1.6500    0.0000 H   0  0  0  0  0  0  0  0  0  0  0  0
    4.2868   -0.0000    0.0000 H   0  0  0  0  0  0  0  0  0  0  0  0
    2.8579    0.8250    0.0000 H   0  0  0  0  0  0  0  0  0  0  0  0
    0.7145   -2.8875    0.0000 N   0  0  0  0  0  0  0  0  0  0  0  0
    0.7145   -3.7125    0.0000 C   0  0  0  0  0  0  0  0  0  0  0  0
    1.1678   -4.4018    0.0000 H   0  0  0  0  0  0  0  0  0  0  0  0
    1.5381   -3.7605    0.0000 H   0  0  0  0  0  0  0  0  0  0  0  0
    0.0000   -4.1250    0.0000 C   0  0  0  0  0  0  0  0  0  0  0  0
   -0.3703   -4.8622    0.0000 H   0  0  0  0  0  0  0  0  0  0  0  0
    0.3703   -4.8622    0.0000 H   0  0  0  0  0  0  0  0  0  0  0  0
   -0.7145   -3.7125    0.0000 N   0  0  0  0  0  0  0  0  0  0  0  0
   -1.4289   -4.1250    0.0000 C   0  0  0  0  0  0  0  0  0  0  0  0
   -1.4289   -4.9500    0.0000 C   0  0  0  0  0  0  0  0  0  0  0  0
   -0.7145   -5.3625    0.0000 H   0  0  0  0  0  0  0  0  0  0  0  0
   -2.1434   -5.3625    0.0000 C   0  0  0  0  0  0  0  0  0  0  0  0
   -2.1434   -6.1875    0.0000 H   0  0  0  0  0  0  0  0  0  0  0  0
   -2.8579   -4.9500    0.0000 C   0  0  0  0  0  0  0  0  0  0  0  0
   -3.5724   -5.3625    0.0000 H   0  0  0  0  0  0  0  0  0  0  0  0
   -2.8579   -4.1250    0.0000 C   0  0  0  0  0  0  0  0  0  0  0  0
   -3.5724   -3.7125    0.0000 Cl  0  0  0  0  0  0  0  0  0  0  0  0
   -2.1434   -3.7125    0.0000 C   0  0  0  0  0  0  0  0  0  0  0  0
   -2.1434   -2.8875    0.0000 H   0  0  0  0  0  0  0  0  0  0  0  0
   -0.7145   -2.8875    0.0000 C   0  0  0  0  0  0  0  0  0  0  0  0
   -1.4289   -2.4750    0.0000 O   0  0  0  0  0  0  0  0  0  0  0  0
    0.0000   -2.4750    0.0000 C   0  0  0  0  0  0  0  0  0  0  0  0
    0.7145   -2.0625    0.0000 H   0  0  0  0  0  0  0  0  0  0  0  0
    0.0000   -3.3000    0.0000 H   0  0  0  0  0  0  0  0  0  0  0  0
  1  2  2  0  0  0  0
  2  3  1  0  0  0  0
  3  4  4  0  0  0  0
  4  5  1  0  0  0  0
  4  6  4  0  0  0  0
  6  7  2  0  0  0  0
  6  8  4  0  0  0  0
  8  9  1  0  0  0  0
  8 10  4  0  0  0  0
 10 11  4  0  0  0  0
 11 12  4  0  0  0  0
 12 13  4  0  0  0  0
 13 14  4  0  0  0  0
 14 15  1  0  0  0  0
 14 16  4  0  0  0  0
  3 16  4  0  0  0  0
 10 16  4  0  0  0  0
 13 17  1  0  0  0  0
 12 18  1  0  0  0  0
 11 19  1  0  0  0  0
  2 20  1  0  0  0  0
 20 21  1  0  0  0  0
 21 22  1  0  0  0  0
 21 23  1  0  0  0  0
 21 24  1  0  0  0  0
 24 25  1  0  0  0  0
 24 26  1  0  0  0  0
 24 27  1  0  0  0  0
 27 28  1  0  0  0  0
 28 29  2  0  0  0  0
 29 30  1  0  0  0  0
 29 31  1  0  0  0  0
 31 32  1  0  0  0  0
 31 33  2  0  0  0  0
 33 34  1  0  0  0  0
 33 35  1  0  0  0  0
 35 36  1  0  0  0  0
 35 37  2  0  0  0  0
 28 37  1  0  0  0  0
 37 38  1  0  0  0  0
 27 39  1  0  0  0  0
 39 40  2  0  0  0  0
 39 41  1  0  0  0  0
 20 41  1  0  0  0  0
 41 42  1  0  0  0  0
 41 43  1  0  0  0  0
M  END
> <Potency>
15.821231423339

> <pIC50>
4.800759716821417

> <Outcome>
Inactive

> <is_active>
0

$$$$

  Mrv1921 08232120312D          

 45 47  0  0  0  0            999 V2000
    0.0000   -3.9039    0.0000 C   0  0  0  0  0  0  0  0  0  0  0  0
    0.4125   -3.1895    0.0000 C   0  0  0  0  0  0  0  0  0  0  0  0
    0.0000   -2.4750    0.0000 C   0  0  0  0  0  0  0  0  0  0  0  0
   -0.8250   -2.4750    0.0000 O   0  0  0  0  0  0  0  0  0  0  0  0
    0.4125   -1.7605    0.0000 N   0  0  0  0  0  0  0  0  0  0  0  0
    0.0000   -1.0461    0.0000 C   0  0  0  0  0  0  0  0  0  0  0  0
   -0.8250   -1.0461    0.0000 C   0  0  0  0  0  0  0  0  0  0  0  0
   -1.2375   -1.7605    0.0000 H   0  0  0  0  0  0  0  0  0  0  0  0
   -1.2375   -0.3316    0.0000 C   0  0  0  0  0  0  0  0  0  0  0  0
   -2.0625   -0.3316    0.0000 H   0  0  0  0  0  0  0  0  0  0  0  0
   -0.8250    0.3829    0.0000 C   0  0  0  0  0  0  0  0  0  0  0  0
   -1.2375    1.0974    0.0000 I   0  0  0  0  0  0  0  0  0  0  0  0
    0.0000    0.3829    0.0000 C   0  0  0  0  0  0  0  0  0  0  0  0
    0.4125    1.0974    0.0000 H   0  0  0  0  0  0  0  0  0  0  0  0
    0.4125   -0.3316    0.0000 C   0  0  0  0  0  0  0  0  0  0  0  0
    0.8250   -1.0461    0.0000 H   0  0  0  0  0  0  0  0  0  0  0  0
    1.2375   -1.7605    0.0000 C   0  0  0  0  0  0  0  0  0  0  0  0
    1.6500   -2.4750    0.0000 C   0  0  0  0  0  0  0  0  0  0  0  0
    1.2375   -3.1895    0.0000 O   0  0  0  0  0  0  0  0  0  0  0  0
    2.4750   -2.4750    0.0000 N   0  0  0  0  0  0  0  0  0  0  0  0
    2.8875   -3.1895    0.0000 C   0  0  0  0  0  0  0  0  0  0  0  0
    3.7125   -3.1895    0.0000 C   0  0  0  0  0  0  0  0  0  0  0  0
    4.1250   -2.4750    0.0000 H   0  0  0  0  0  0  0  0  0  0  0  0
    4.1250   -3.9039    0.0000 C   0  0  0  0  0  0  0  0  0  0  0  0
    4.9500   -3.9039    0.0000 H   0  0  0  0  0  0  0  0  0  0  0  0
    3.7125   -4.6184    0.0000 C   0  0  0  0  0  0  0  0  0  0  0  0
    4.1250   -5.3329    0.0000 Cl  0  0  0  0  0  0  0  0  0  0  0  0
    2.8875   -4.6184    0.0000 C   0  0  0  0  0  0  0  0  0  0  0  0
    2.4750   -5.3329    0.0000 H   0  0  0  0  0  0  0  0  0  0  0  0
    2.4750   -3.9039    0.0000 C   0  0  0  0  0  0  0  0  0  0  0  0
    1.6500   -3.9039    0.0000 H   0  0  0  0  0  0  0  0  0  0  0  0
    3.1895   -2.0625    0.0000 H   0  0  0  0  0  0  0  0  0  0  0  0
    1.6500   -1.0461    0.0000 C   0  0  0  0  0  0  0  0  0  0  0  0
    1.2375   -0.3316    0.0000 C   0  0  0  0  0  0  0  0  0  0  0  0
    0.8250    0.3829    0.0000 H   0  0  0  0  0  0  0  0  0  0  0  0
    1.6500    0.3829    0.0000 N   0  0  0  0  0  0  0  0  0  0  0  0
    2.4750    0.3829    0.0000 C   0  0  0  0  0  0  0  0  0  0  0  0
    2.8875    1.0974    0.0000 H   0  0  0  0  0  0  0  0  0  0  0  0
    2.8875   -0.3316    0.0000 N   0  0  0  0  0  0  0  0  0  0  0  0
    2.4750   -1.0461    0.0000 C   0  0  0  0  0  0  0  0  0  0  0  0
    3.1895   -1.4586    0.0000 H   0  0  0  0  0  0  0  0  0  0  0  0
    2.0625   -1.7605    0.0000 H   0  0  0  0  0  0  0  0  0  0  0  0
    0.8250   -2.4750    0.0000 H   0  0  0  0  0  0  0  0  0  0  0  0
   -0.8250   -3.9039    0.0000 H   0  0  0  0  0  0  0  0  0  0  0  0
    0.4125   -4.6184    0.0000 H   0  0  0  0  0  0  0  0  0  0  0  0
  1  2  2  0  0  0  0
  2  3  1  0  0  0  0
  3  4  2  0  0  0  0
  3  5  1  0  0  0  0
  5  6  1  0  0  0  0
  6  7  2  0  0  0  0
  7  8  1  0  0  0  0
  7  9  1  0  0  0  0
  9 10  1  0  0  0  0
  9 11  2  0  0  0  0
 11 12  1  0  0  0  0
 11 13  1  0  0  0  0
 13 14  1  0  0  0  0
 13 15  2  0  0  0  0
  6 15  1  0  0  0  0
 15 16  1  0  0  0  0
  5 17  1  0  0  0  0
 17 18  1  0  0  0  0
 18 19  2  0  0  0  0
 18 20  1  0  0  0  0
 20 21  1  0  0  0  0
 21 22  2  0  0  0  0
 22 23  1  0  0  0  0
 22 24  1  0  0  0  0
 24 25  1  0  0  0  0
 24 26  2  0  0  0  0
 26 27  1  0  0  0  0
 26 28  1  0  0  0  0
 28 29  1  0  0  0  0
 28 30  2  0  0  0  0
 21 30  1  0  0  0  0
 30 31  1  0  0  0  0
 20 32  1  0  0  0  0
 17 33  1  0  0  0  0
 33 34  2  0  0  0  0
 34 35  1  0  0  0  0
 34 36  1  0  0  0  0
 36 37  2  0  0  0  0
 37 38  1  0  0  0  0
 37 39  1  0  0  0  0
 39 40  2  0  0  0  0
 33 40  1  0  0  0  0
 40 41  1  0  0  0  0
 17 42  1  0  0  0  0
  2 43  1  0  0  0  0
  1 44  1  0  0  0  0
  1 45  1  0  0  0  0
M  END
> <Potency>
26.2744066398215

> <pIC50>
4.580467082948094

> <Outcome>
Inactive

> <is_active>
0

$$$$

  Mrv1921 08232120312D          

 36 39  0  0  0  0            999 V2000
    3.7083   -2.2155    0.0000 N   0  0  0  0  0  0  0  0  0  0  0  0
    3.9633   -1.4308    0.0000 C   0  0  0  0  0  0  0  0  0  0  0  0
    3.4783   -0.7634    0.0000 N   0  0  0  0  0  0  0  0  0  0  0  0
    3.9633   -0.0960    0.0000 N   0  0  0  0  0  0  0  0  0  0  0  0
    3.7083    0.6887    0.0000 C   0  0  0  0  0  0  0  0  0  0  0  0
    4.2603    1.3018    0.0000 O   0  0  0  0  0  0  0  0  0  0  0  0
    2.9013    0.8602    0.0000 C   0  0  0  0  0  0  0  0  0  0  0  0
    2.3493    0.2471    0.0000 C   0  0  0  0  0  0  0  0  0  0  0  0
    2.2250   -0.5685    0.0000 H   0  0  0  0  0  0  0  0  0  0  0  0
    2.9293   -0.3396    0.0000 H   0  0  0  0  0  0  0  0  0  0  0  0
    1.5423    0.4186    0.0000 C   0  0  0  0  0  0  0  0  0  0  0  0
    0.7739    0.1185    0.0000 H   0  0  0  0  0  0  0  0  0  0  0  0
    1.3242   -0.3770    0.0000 H   0  0  0  0  0  0  0  0  0  0  0  0
    1.2874    1.2032    0.0000 O   0  0  0  0  0  0  0  0  0  0  0  0
    1.8394    1.8163    0.0000 C   0  0  0  0  0  0  0  0  0  0  0  0
    1.5845    2.6010    0.0000 C   0  0  0  0  0  0  0  0  0  0  0  0
    2.1365    3.2141    0.0000 C   0  0  0  0  0  0  0  0  0  0  0  0
    2.9435    3.0425    0.0000 C   0  0  0  0  0  0  0  0  0  0  0  0
    3.4955    3.6556    0.0000 Cl  0  0  0  0  0  0  0  0  0  0  0  0
    3.1984    2.2579    0.0000 C   0  0  0  0  0  0  0  0  0  0  0  0
    3.9831    2.5128    0.0000 H   0  0  0  0  0  0  0  0  0  0  0  0
    2.6464    1.6448    0.0000 C   0  0  0  0  0  0  0  0  0  0  0  0
    1.8816    3.9987    0.0000 H   0  0  0  0  0  0  0  0  0  0  0  0
    0.7775    2.7725    0.0000 H   0  0  0  0  0  0  0  0  0  0  0  0
    3.4534    1.4733    0.0000 H   0  0  0  0  0  0  0  0  0  0  0  0
    4.7479   -0.3509    0.0000 C   0  0  0  0  0  0  0  0  0  0  0  0
    5.4623    0.0616    0.0000 C   0  0  0  0  0  0  0  0  0  0  0  0
    6.1768   -0.3509    0.0000 C   0  0  0  0  0  0  0  0  0  0  0  0
    6.1768   -1.1759    0.0000 N   0  0  0  0  0  0  0  0  0  0  0  0
    5.4623   -1.5884    0.0000 C   0  0  0  0  0  0  0  0  0  0  0  0
    5.4623   -2.4134    0.0000 H   0  0  0  0  0  0  0  0  0  0  0  0
    4.7479   -1.1759    0.0000 C   0  0  0  0  0  0  0  0  0  0  0  0
    6.8913    0.0616    0.0000 H   0  0  0  0  0  0  0  0  0  0  0  0
    5.4623    0.8866    0.0000 H   0  0  0  0  0  0  0  0  0  0  0  0
    2.9013   -2.3870    0.0000 H   0  0  0  0  0  0  0  0  0  0  0  0
    4.2603   -2.8285    0.0000 H   0  0  0  0  0  0  0  0  0  0  0  0
  1  2  1  0  0  0  0
  2  3  2  0  0  0  0
  3  4  1  0  0  0  0
  4  5  1  0  0  0  0
  5  6  2  0  0  0  0
  5  7  1  0  0  0  0
  7  8  1  0  0  0  0
  8  9  1  0  0  0  0
  8 10  1  0  0  0  0
  8 11  1  0  0  0  0
 11 12  1  0  0  0  0
 11 13  1  0  0  0  0
 11 14  1  0  0  0  0
 14 15  1  0  0  0  0
 15 16  2  0  0  0  0
 16 17  1  0  0  0  0
 17 18  2  0  0  0  0
 18 19  1  0  0  0  0
 18 20  1  0  0  0  0
 20 21  1  0  0  0  0
 20 22  2  0  0  0  0
  7 22  1  0  0  0  0
 15 22  1  0  0  0  0
 17 23  1  0  0  0  0
 16 24  1  0  0  0  0
  7 25  1  0  0  0  0
  4 26  1  0  0  0  0
 26 27  1  0  0  0  0
 27 28  2  0  0  0  0
 28 29  1  0  0  0  0
 29 30  2  0  0  0  0
 30 31  1  0  0  0  0
 30 32  1  0  0  0  0
  2 32  1  0  0  0  0
 26 32  2  0  0  0  0
 28 33  1  0  0  0  0
 27 34  1  0  0  0  0
  1 35  1  0  0  0  0
  1 36  1  0  0  0  0
M  END
> <Potency>
87.1704808920427

> <pIC50>
4.0596305581420795

> <Outcome>
Inactive

> <is_active>
0

$$$$

  Mrv1921 08232120312D          

 71 75  0  0  0  0            999 V2000
    1.7776    3.0757    0.0000 C   0  0  0  0  0  0  0  0  0  0  0  0
    2.3177    2.4520    0.0000 C   0  0  0  0  0  0  0  0  0  0  0  0
    1.6941    1.9120    0.0000 C   0  0  0  0  0  0  0  0  0  0  0  0
    0.9112    1.6516    0.0000 H   0  0  0  0  0  0  0  0  0  0  0  0
    1.6350    1.0891    0.0000 H   0  0  0  0  0  0  0  0  0  0  0  0
    2.4317    1.5425    0.0000 H   0  0  0  0  0  0  0  0  0  0  0  0
    2.9413    2.9921    0.0000 C   0  0  0  0  0  0  0  0  0  0  0  0
    3.2017    2.2093    0.0000 H   0  0  0  0  0  0  0  0  0  0  0  0
    3.7642    2.9331    0.0000 H   0  0  0  0  0  0  0  0  0  0  0  0
    3.3108    3.7298    0.0000 H   0  0  0  0  0  0  0  0  0  0  0  0
    2.8578    1.8284    0.0000 C   0  0  0  0  0  0  0  0  0  0  0  0
    3.6679    1.9843    0.0000 C   0  0  0  0  0  0  0  0  0  0  0  0
    4.4545    2.2331    0.0000 H   0  0  0  0  0  0  0  0  0  0  0  0
    4.2080    1.3607    0.0000 C   0  0  0  0  0  0  0  0  0  0  0  0
    4.7615    0.7489    0.0000 H   0  0  0  0  0  0  0  0  0  0  0  0
    3.9380    0.5811    0.0000 C   0  0  0  0  0  0  0  0  0  0  0  0
    4.4781   -0.0425    0.0000 N   0  0  0  0  0  0  0  0  0  0  0  0
    4.2080   -0.8221    0.0000 C   0  0  0  0  0  0  0  0  0  0  0  0
    4.7481   -1.4457    0.0000 O   0  0  0  0  0  0  0  0  0  0  0  0
    3.3979   -0.9780    0.0000 C   0  0  0  0  0  0  0  0  0  0  0  0
    3.0478   -1.7250    0.0000 C   0  0  0  0  0  0  0  0  0  0  0  0
    3.4465   -2.4473    0.0000 H   0  0  0  0  0  0  0  0  0  0  0  0
    2.2292   -1.6230    0.0000 C   0  0  0  0  0  0  0  0  0  0  0  0
    1.6654   -2.2253    0.0000 H   0  0  0  0  0  0  0  0  0  0  0  0
    2.0733   -0.8128    0.0000 C   0  0  0  0  0  0  0  0  0  0  0  0
    1.3262   -0.4628    0.0000 H   0  0  0  0  0  0  0  0  0  0  0  0
    2.7956   -0.4142    0.0000 O   0  0  0  0  0  0  0  0  0  0  0  0
    5.2882    0.1134    0.0000 C   0  0  0  0  0  0  0  0  0  0  0  0
    5.8283   -0.5103    0.0000 C   0  0  0  0  0  0  0  0  0  0  0  0
    5.5582   -1.2898    0.0000 O   0  0  0  0  0  0  0  0  0  0  0  0
    6.6384   -0.3543    0.0000 N   0  0  0  0  0  0  0  0  0  0  0  0
    7.1785   -0.9780    0.0000 C   0  0  0  0  0  0  0  0  0  0  0  0
    7.9886   -0.8221    0.0000 C   0  0  0  0  0  0  0  0  0  0  0  0
    8.5287   -1.4457    0.0000 C   0  0  0  0  0  0  0  0  0  0  0  0
    9.3389   -1.2898    0.0000 C   0  0  0  0  0  0  0  0  0  0  0  0
    9.6089   -0.5103    0.0000 H   0  0  0  0  0  0  0  0  0  0  0  0
    9.8790   -1.9134    0.0000 C   0  0  0  0  0  0  0  0  0  0  0  0
   10.6891   -1.7575    0.0000 H   0  0  0  0  0  0  0  0  0  0  0  0
    9.6089   -2.6930    0.0000 C   0  0  0  0  0  0  0  0  0  0  0  0
   10.1490   -3.3166    0.0000 H   0  0  0  0  0  0  0  0  0  0  0  0
    8.7988   -2.8489    0.0000 C   0  0  0  0  0  0  0  0  0  0  0  0
    8.5287   -3.6285    0.0000 F   0  0  0  0  0  0  0  0  0  0  0  0
    8.2587   -2.2253    0.0000 C   0  0  0  0  0  0  0  0  0  0  0  0
    7.4485   -2.3812    0.0000 H   0  0  0  0  0  0  0  0  0  0  0  0
    8.5798   -0.2466    0.0000 H   0  0  0  0  0  0  0  0  0  0  0  0
    7.8801   -0.0042    0.0000 H   0  0  0  0  0  0  0  0  0  0  0  0
    6.5873   -1.5534    0.0000 H   0  0  0  0  0  0  0  0  0  0  0  0
    7.2870   -1.7958    0.0000 H   0  0  0  0  0  0  0  0  0  0  0  0
    6.9085    0.4252    0.0000 H   0  0  0  0  0  0  0  0  0  0  0  0
    5.5582    0.8929    0.0000 C   0  0  0  0  0  0  0  0  0  0  0  0
    5.0863    1.5696    0.0000 C   0  0  0  0  0  0  0  0  0  0  0  0
    5.9111    1.5537    0.0000 H   0  0  0  0  0  0  0  0  0  0  0  0
    5.5840    2.2276    0.0000 N   0  0  0  0  0  0  0  0  0  0  0  0
    6.3636    1.9575    0.0000 C   0  0  0  0  0  0  0  0  0  0  0  0
    7.0859    2.3561    0.0000 C   0  0  0  0  0  0  0  0  0  0  0  0
    7.7922    1.9299    0.0000 C   0  0  0  0  0  0  0  0  0  0  0  0
    7.7763    1.1051    0.0000 C   0  0  0  0  0  0  0  0  0  0  0  0
    7.0540    0.7065    0.0000 C   0  0  0  0  0  0  0  0  0  0  0  0
    7.6451    0.1309    0.0000 H   0  0  0  0  0  0  0  0  0  0  0  0
    6.3476    1.1327    0.0000 N   0  0  0  0  0  0  0  0  0  0  0  0
    8.4827    0.6789    0.0000 H   0  0  0  0  0  0  0  0  0  0  0  0
    8.5145    2.3286    0.0000 H   0  0  0  0  0  0  0  0  0  0  0  0
    7.1018    3.1810    0.0000 H   0  0  0  0  0  0  0  0  0  0  0  0
    5.0181   -0.6662    0.0000 H   0  0  0  0  0  0  0  0  0  0  0  0
    3.1278    0.4252    0.0000 C   0  0  0  0  0  0  0  0  0  0  0  0
    2.3145    0.2869    0.0000 H   0  0  0  0  0  0  0  0  0  0  0  0
    2.5877    1.0489    0.0000 C   0  0  0  0  0  0  0  0  0  0  0  0
    3.3979    1.2048    0.0000 H   0  0  0  0  0  0  0  0  0  0  0  0
    2.4013    3.6158    0.0000 H   0  0  0  0  0  0  0  0  0  0  0  0
    1.2375    3.6993    0.0000 H   0  0  0  0  0  0  0  0  0  0  0  0
    1.1540    2.5356    0.0000 H   0  0  0  0  0  0  0  0  0  0  0  0
  1  2  1  0  0  0  0
  2  3  1  0  0  0  0
  3  4  1  0  0  0  0
  3  5  1  0  0  0  0
  3  6  1  0  0  0  0
  2  7  1  0  0  0  0
  7  8  1  0  0  0  0
  7  9  1  0  0  0  0
  7 10  1  0  0  0  0
  2 11  1  0  0  0  0
 11 12  2  0  0  0  0
 12 13  1  0  0  0  0
 12 14  1  0  0  0  0
 14 15  1  0  0  0  0
 14 16  2  0  0  0  0
 16 17  1  0  0  0  0
 17 18  1  0  0  0  0
 18 19  2  0  0  0  0
 18 20  1  0  0  0  0
 20 21  2  0  0  0  0
 21 22  1  0  0  0  0
 21 23  1  0  0  0  0
 23 24  1  0  0  0  0
 23 25  2  0  0  0  0
 25 26  1  0  0  0  0
 25 27  1  0  0  0  0
 20 27  1  0  0  0  0
 17 28  1  0  0  0  0
 28 29  1  0  0  0  0
 29 30  2  0  0  0  0
 29 31  1  0  0  0  0
 31 32  1  0  0  0  0
 32 33  1  0  0  0  0
 33 34  1  0  0  0  0
 34 35  2  0  0  0  0
 35 36  1  0  0  0  0
 35 37  1  0  0  0  0
 37 38  1  0  0  0  0
 37 39  2  0  0  0  0
 39 40  1  0  0  0  0
 39 41  1  0  0  0  0
 41 42  1  0  0  0  0
 41 43  2  0  0  0  0
 34 43  1  0  0  0  0
 43 44  1  0  0  0  0
 33 45  1  0  0  0  0
 33 46  1  0  0  0  0
 32 47  1  0  0  0  0
 32 48  1  0  0  0  0
 31 49  1  0  0  0  0
 28 50  1  0  0  0  0
 50 51  2  0  0  0  0
 51 52  1  0  0  0  0
 51 53  1  0  0  0  0
 53 54  2  0  0  0  0
 54 55  1  0  0  0  0
 55 56  2  0  0  0  0
 56 57  1  0  0  0  0
 57 58  2  0  0  0  0
 58 59  1  0  0  0  0
 58 60  1  0  0  0  0
 50 60  1  0  0  0  0
 54 60  1  0  0  0  0
 57 61  1  0  0  0  0
 56 62  1  0  0  0  0
 55 63  1  0  0  0  0
 28 64  1  0  0  0  0
 16 65  1  0  0  0  0
 65 66  1  0  0  0  0
 65 67  2  0  0  0  0
 11 67  1  0  0  0  0
 67 68  1  0  0  0  0
  1 69  1  0  0  0  0
  1 70  1  0  0  0  0
  1 71  1  0  0  0  0
M  END
> <Potency>
37.4742492333521

> <pIC50>
4.426267059135546

> <Outcome>
Inactive

> <is_active>
0

$$$$

  Mrv1921 08232120312D          

 73 77  0  0  0  0            999 V2000
   -0.3114    1.8776    0.0000 C   0  0  0  0  0  0  0  0  0  0  0  0
    0.2287    1.2539    0.0000 C   0  0  0  0  0  0  0  0  0  0  0  0
   -0.3950    0.7138    0.0000 C   0  0  0  0  0  0  0  0  0  0  0  0
   -1.1778    0.4535    0.0000 H   0  0  0  0  0  0  0  0  0  0  0  0
   -0.4541   -0.1090    0.0000 H   0  0  0  0  0  0  0  0  0  0  0  0
    0.3427    0.3444    0.0000 H   0  0  0  0  0  0  0  0  0  0  0  0
    0.8523    1.7940    0.0000 C   0  0  0  0  0  0  0  0  0  0  0  0
    1.1126    1.0112    0.0000 H   0  0  0  0  0  0  0  0  0  0  0  0
    1.6752    1.7349    0.0000 H   0  0  0  0  0  0  0  0  0  0  0  0
    1.2218    2.5317    0.0000 H   0  0  0  0  0  0  0  0  0  0  0  0
    0.7688    0.6303    0.0000 C   0  0  0  0  0  0  0  0  0  0  0  0
    1.5789    0.7862    0.0000 C   0  0  0  0  0  0  0  0  0  0  0  0
    2.3655    1.0350    0.0000 H   0  0  0  0  0  0  0  0  0  0  0  0
    2.1190    0.1626    0.0000 C   0  0  0  0  0  0  0  0  0  0  0  0
    2.6591   -0.4611    0.0000 H   0  0  0  0  0  0  0  0  0  0  0  0
    1.8489   -0.6170    0.0000 C   0  0  0  0  0  0  0  0  0  0  0  0
    2.3890   -1.2406    0.0000 N   0  0  0  0  0  0  0  0  0  0  0  0
    2.1190   -2.0202    0.0000 C   0  0  0  0  0  0  0  0  0  0  0  0
    2.6591   -2.6438    0.0000 O   0  0  0  0  0  0  0  0  0  0  0  0
    1.3088   -2.1761    0.0000 C   0  0  0  0  0  0  0  0  0  0  0  0
    0.9588   -2.9231    0.0000 C   0  0  0  0  0  0  0  0  0  0  0  0
    1.3574   -3.6454    0.0000 H   0  0  0  0  0  0  0  0  0  0  0  0
    0.1401   -2.8211    0.0000 N   0  0  0  0  0  0  0  0  0  0  0  0
   -0.4835   -3.3612    0.0000 C   0  0  0  0  0  0  0  0  0  0  0  0
   -1.2631   -3.0911    0.0000 C   0  0  0  0  0  0  0  0  0  0  0  0
   -1.4190   -2.2810    0.0000 C   0  0  0  0  0  0  0  0  0  0  0  0
   -0.7953   -1.7409    0.0000 C   0  0  0  0  0  0  0  0  0  0  0  0
   -0.9512   -0.9308    0.0000 H   0  0  0  0  0  0  0  0  0  0  0  0
   -0.0158   -2.0109    0.0000 C   0  0  0  0  0  0  0  0  0  0  0  0
    0.7065   -1.6123    0.0000 N   0  0  0  0  0  0  0  0  0  0  0  0
   -2.1985   -2.0109    0.0000 H   0  0  0  0  0  0  0  0  0  0  0  0
   -1.8867   -3.6312    0.0000 H   0  0  0  0  0  0  0  0  0  0  0  0
   -0.3276   -4.1713    0.0000 H   0  0  0  0  0  0  0  0  0  0  0  0
    3.1992   -1.0847    0.0000 C   0  0  0  0  0  0  0  0  0  0  0  0
    3.7392   -1.7084    0.0000 C   0  0  0  0  0  0  0  0  0  0  0  0
    3.4692   -2.4879    0.0000 O   0  0  0  0  0  0  0  0  0  0  0  0
    4.5494   -1.5524    0.0000 N   0  0  0  0  0  0  0  0  0  0  0  0
    5.0895   -2.1761    0.0000 C   0  0  0  0  0  0  0  0  0  0  0  0
    5.8996   -2.0202    0.0000 C   0  0  0  0  0  0  0  0  0  0  0  0
    6.4397   -2.6438    0.0000 C   0  0  0  0  0  0  0  0  0  0  0  0
    7.2498   -2.4879    0.0000 C   0  0  0  0  0  0  0  0  0  0  0  0
    7.5199   -1.7084    0.0000 H   0  0  0  0  0  0  0  0  0  0  0  0
    7.7899   -3.1116    0.0000 C   0  0  0  0  0  0  0  0  0  0  0  0
    8.6001   -2.9556    0.0000 H   0  0  0  0  0  0  0  0  0  0  0  0
    7.5199   -3.8911    0.0000 C   0  0  0  0  0  0  0  0  0  0  0  0
    8.0600   -4.5147    0.0000 H   0  0  0  0  0  0  0  0  0  0  0  0
    6.7097   -4.0470    0.0000 C   0  0  0  0  0  0  0  0  0  0  0  0
    6.4397   -4.8266    0.0000 F   0  0  0  0  0  0  0  0  0  0  0  0
    6.1696   -3.4234    0.0000 C   0  0  0  0  0  0  0  0  0  0  0  0
    5.3595   -3.5793    0.0000 H   0  0  0  0  0  0  0  0  0  0  0  0
    6.4908   -1.4447    0.0000 H   0  0  0  0  0  0  0  0  0  0  0  0
    5.7911   -1.2024    0.0000 H   0  0  0  0  0  0  0  0  0  0  0  0
    4.4983   -2.7515    0.0000 H   0  0  0  0  0  0  0  0  0  0  0  0
    5.1980   -2.9939    0.0000 H   0  0  0  0  0  0  0  0  0  0  0  0
    4.8194   -0.7729    0.0000 H   0  0  0  0  0  0  0  0  0  0  0  0
    3.4692   -0.3052    0.0000 C   0  0  0  0  0  0  0  0  0  0  0  0
    2.9291    0.3185    0.0000 C   0  0  0  0  0  0  0  0  0  0  0  0
    3.7392    0.4744    0.0000 H   0  0  0  0  0  0  0  0  0  0  0  0
    3.1992    1.0980    0.0000 C   0  0  0  0  0  0  0  0  0  0  0  0
    3.0899    1.9158    0.0000 H   0  0  0  0  0  0  0  0  0  0  0  0
    4.0093    1.2539    0.0000 C   0  0  0  0  0  0  0  0  0  0  0  0
    4.2793    2.0335    0.0000 H   0  0  0  0  0  0  0  0  0  0  0  0
    4.5494    0.6303    0.0000 N   0  0  0  0  0  0  0  0  0  0  0  0
    4.2793   -0.1493    0.0000 C   0  0  0  0  0  0  0  0  0  0  0  0
    4.0093   -0.9288    0.0000 H   0  0  0  0  0  0  0  0  0  0  0  0
    2.9291   -1.8643    0.0000 H   0  0  0  0  0  0  0  0  0  0  0  0
    1.0388   -0.7729    0.0000 C   0  0  0  0  0  0  0  0  0  0  0  0
    0.2255   -0.9112    0.0000 H   0  0  0  0  0  0  0  0  0  0  0  0
    0.4987   -0.1493    0.0000 C   0  0  0  0  0  0  0  0  0  0  0  0
    1.3088    0.0067    0.0000 H   0  0  0  0  0  0  0  0  0  0  0  0
    0.3122    2.4177    0.0000 H   0  0  0  0  0  0  0  0  0  0  0  0
   -0.8515    2.5012    0.0000 H   0  0  0  0  0  0  0  0  0  0  0  0
   -0.9351    1.3375    0.0000 H   0  0  0  0  0  0  0  0  0  0  0  0
  1  2  1  0  0  0  0
  2  3  1  0  0  0  0
  3  4  1  0  0  0  0
  3  5  1  0  0  0  0
  3  6  1  0  0  0  0
  2  7  1  0  0  0  0
  7  8  1  0  0  0  0
  7  9  1  0  0  0  0
  7 10  1  0  0  0  0
  2 11  1  0  0  0  0
 11 12  2  0  0  0  0
 12 13  1  0  0  0  0
 12 14  1  0  0  0  0
 14 15  1  0  0  0  0
 14 16  2  0  0  0  0
 16 17  1  0  0  0  0
 17 18  1  0  0  0  0
 18 19  2  0  0  0  0
 18 20  1  0  0  0  0
 20 21  2  0  0  0  0
 21 22  1  0  0  0  0
 21 23  1  0  0  0  0
 23 24  1  0  0  0  0
 24 25  2  0  0  0  0
 25 26  1  0  0  0  0
 26 27  2  0  0  0  0
 27 28  1  0  0  0  0
 27 29  1  0  0  0  0
 23 29  1  0  0  0  0
 29 30  2  0  0  0  0
 20 30  1  0  0  0  0
 26 31  1  0  0  0  0
 25 32  1  0  0  0  0
 24 33  1  0  0  0  0
 17 34  1  0  0  0  0
 34 35  1  0  0  0  0
 35 36  2  0  0  0  0
 35 37  1  0  0  0  0
 37 38  1  0  0  0  0
 38 39  1  0  0  0  0
 39 40  1  0  0  0  0
 40 41  2  0  0  0  0
 41 42  1  0  0  0  0
 41 43  1  0  0  0  0
 43 44  1  0  0  0  0
 43 45  2  0  0  0  0
 45 46  1  0  0  0  0
 45 47  1  0  0  0  0
 47 48  1  0  0  0  0
 47 49  2  0  0  0  0
 40 49  1  0  0  0  0
 49 50  1  0  0  0  0
 39 51  1  0  0  0  0
 39 52  1  0  0  0  0
 38 53  1  0  0  0  0
 38 54  1  0  0  0  0
 37 55  1  0  0  0  0
 34 56  1  0  0  0  0
 56 57  2  0  0  0  0
 57 58  1  0  0  0  0
 57 59  1  0  0  0  0
 59 60  1  0  0  0  0
 59 61  2  0  0  0  0
 61 62  1  0  0  0  0
 61 63  1  0  0  0  0
 63 64  2  0  0  0  0
 56 64  1  0  0  0  0
 64 65  1  0  0  0  0
 34 66  1  0  0  0  0
 16 67  1  0  0  0  0
 67 68  1  0  0  0  0
 67 69  2  0  0  0  0
 11 69  1  0  0  0  0
 69 70  1  0  0  0  0
  1 71  1  0  0  0  0
  1 72  1  0  0  0  0
  1 73  1  0  0  0  0
M  END
> <Potency>
18.2038870169188

> <pIC50>
4.739835868621642

> <Outcome>
Inactive

> <is_active>
0

$$$$

  Mrv1921 08232120312D          

 64 66  0  0  0  0            999 V2000
    1.5077   -3.6573    0.0000 C   0  0  0  0  0  0  0  0  0  0  0  0
    2.3178   -3.5014    0.0000 N   0  0  0  0  0  0  0  0  0  0  0  0
    2.5878   -2.7218    0.0000 C   0  0  0  0  0  0  0  0  0  0  0  0
    3.3674   -2.9919    0.0000 H   0  0  0  0  0  0  0  0  0  0  0  0
    2.8579   -1.9423    0.0000 H   0  0  0  0  0  0  0  0  0  0  0  0
    1.8083   -2.4518    0.0000 H   0  0  0  0  0  0  0  0  0  0  0  0
    2.8579   -4.1250    0.0000 C   0  0  0  0  0  0  0  0  0  0  0  0
    2.5878   -4.9046    0.0000 O   0  0  0  0  0  0  0  0  0  0  0  0
    3.6680   -3.9691    0.0000 C   0  0  0  0  0  0  0  0  0  0  0  0
    4.2081   -4.5927    0.0000 N   0  0  0  0  0  0  0  0  0  0  0  0
    5.0182   -4.4368    0.0000 C   0  0  0  0  0  0  0  0  0  0  0  0
    5.2883   -3.6573    0.0000 O   0  0  0  0  0  0  0  0  0  0  0  0
    5.5583   -5.0605    0.0000 C   0  0  0  0  0  0  0  0  0  0  0  0
    5.2883   -5.8400    0.0000 C   0  0  0  0  0  0  0  0  0  0  0  0
    5.8284   -6.4637    0.0000 C   0  0  0  0  0  0  0  0  0  0  0  0
    6.0984   -5.6841    0.0000 H   0  0  0  0  0  0  0  0  0  0  0  0
    5.5583   -7.2432    0.0000 C   0  0  0  0  0  0  0  0  0  0  0  0
    6.0984   -7.8668    0.0000 H   0  0  0  0  0  0  0  0  0  0  0  0
    4.7482   -7.3991    0.0000 C   0  0  0  0  0  0  0  0  0  0  0  0
    4.4782   -8.1787    0.0000 H   0  0  0  0  0  0  0  0  0  0  0  0
    4.2081   -6.7755    0.0000 N   0  0  0  0  0  0  0  0  0  0  0  0
    4.4782   -5.9959    0.0000 C   0  0  0  0  0  0  0  0  0  0  0  0
    3.6680   -6.1518    0.0000 H   0  0  0  0  0  0  0  0  0  0  0  0
    6.3685   -4.9046    0.0000 N   0  0  0  0  0  0  0  0  0  0  0  0
    6.6385   -4.1250    0.0000 C   0  0  0  0  0  0  0  0  0  0  0  0
    6.0984   -3.5014    0.0000 O   0  0  0  0  0  0  0  0  0  0  0  0
    7.4486   -3.9691    0.0000 C   0  0  0  0  0  0  0  0  0  0  0  0
    7.7987   -3.2220    0.0000 C   0  0  0  0  0  0  0  0  0  0  0  0
    7.4001   -2.4997    0.0000 H   0  0  0  0  0  0  0  0  0  0  0  0
    8.6174   -3.3241    0.0000 C   0  0  0  0  0  0  0  0  0  0  0  0
    9.1811   -2.7218    0.0000 H   0  0  0  0  0  0  0  0  0  0  0  0
    8.7733   -4.1342    0.0000 C   0  0  0  0  0  0  0  0  0  0  0  0
    9.5203   -4.4843    0.0000 H   0  0  0  0  0  0  0  0  0  0  0  0
    8.0510   -4.5329    0.0000 O   0  0  0  0  0  0  0  0  0  0  0  0
    6.9086   -5.5282    0.0000 C   0  0  0  0  0  0  0  0  0  0  0  0
    7.7187   -5.3723    0.0000 C   0  0  0  0  0  0  0  0  0  0  0  0
    7.1923   -4.7371    0.0000 H   0  0  0  0  0  0  0  0  0  0  0  0
    8.2588   -5.9959    0.0000 C   0  0  0  0  0  0  0  0  0  0  0  0
    9.0689   -5.8400    0.0000 H   0  0  0  0  0  0  0  0  0  0  0  0
    7.9887   -6.7755    0.0000 C   0  0  0  0  0  0  0  0  0  0  0  0
    8.5288   -7.3991    0.0000 C   0  0  0  0  0  0  0  0  0  0  0  0
    9.0689   -8.0228    0.0000 C   0  0  0  0  0  0  0  0  0  0  0  0
    8.4453   -8.5628    0.0000 H   0  0  0  0  0  0  0  0  0  0  0  0
    9.6090   -8.6464    0.0000 H   0  0  0  0  0  0  0  0  0  0  0  0
    9.6926   -7.4827    0.0000 H   0  0  0  0  0  0  0  0  0  0  0  0
    7.9052   -7.9392    0.0000 C   0  0  0  0  0  0  0  0  0  0  0  0
    7.6449   -7.1564    0.0000 H   0  0  0  0  0  0  0  0  0  0  0  0
    7.0823   -7.8801    0.0000 H   0  0  0  0  0  0  0  0  0  0  0  0
    7.5357   -8.6768    0.0000 H   0  0  0  0  0  0  0  0  0  0  0  0
    9.1525   -6.8590    0.0000 C   0  0  0  0  0  0  0  0  0  0  0  0
    9.9353   -6.5987    0.0000 H   0  0  0  0  0  0  0  0  0  0  0  0
    9.2115   -6.0361    0.0000 H   0  0  0  0  0  0  0  0  0  0  0  0
    8.4148   -6.4895    0.0000 H   0  0  0  0  0  0  0  0  0  0  0  0
    7.1786   -6.9314    0.0000 C   0  0  0  0  0  0  0  0  0  0  0  0
    6.3920   -7.1801    0.0000 H   0  0  0  0  0  0  0  0  0  0  0  0
    6.6385   -6.3077    0.0000 C   0  0  0  0  0  0  0  0  0  0  0  0
    7.4486   -6.1518    0.0000 H   0  0  0  0  0  0  0  0  0  0  0  0
    4.7482   -5.2164    0.0000 H   0  0  0  0  0  0  0  0  0  0  0  0
    3.9381   -5.3723    0.0000 H   0  0  0  0  0  0  0  0  0  0  0  0
    4.2592   -3.3937    0.0000 H   0  0  0  0  0  0  0  0  0  0  0  0
    3.5595   -3.1513    0.0000 H   0  0  0  0  0  0  0  0  0  0  0  0
    1.3518   -2.8471    0.0000 H   0  0  0  0  0  0  0  0  0  0  0  0
    0.6975   -3.8132    0.0000 H   0  0  0  0  0  0  0  0  0  0  0  0
    1.6636   -4.4674    0.0000 H   0  0  0  0  0  0  0  0  0  0  0  0
  1  2  1  0  0  0  0
  2  3  1  0  0  0  0
  3  4  1  0  0  0  0
  3  5  1  0  0  0  0
  3  6  1  0  0  0  0
  2  7  1  0  0  0  0
  7  8  2  0  0  0  0
  7  9  1  0  0  0  0
  9 10  1  0  0  0  0
 10 11  1  0  0  0  0
 11 12  2  0  0  0  0
 11 13  1  0  0  0  0
 13 14  1  0  0  0  0
 14 15  2  0  0  0  0
 15 16  1  0  0  0  0
 15 17  1  0  0  0  0
 17 18  1  0  0  0  0
 17 19  2  0  0  0  0
 19 20  1  0  0  0  0
 19 21  1  0  0  0  0
 21 22  2  0  0  0  0
 14 22  1  0  0  0  0
 22 23  1  0  0  0  0
 13 24  1  0  0  0  0
 24 25  1  0  0  0  0
 25 26  2  0  0  0  0
 25 27  1  0  0  0  0
 27 28  2  0  0  0  0
 28 29  1  0  0  0  0
 28 30  1  0  0  0  0
 30 31  1  0  0  0  0
 30 32  2  0  0  0  0
 32 33  1  0  0  0  0
 32 34  1  0  0  0  0
 27 34  1  0  0  0  0
 24 35  1  0  0  0  0
 35 36  2  0  0  0  0
 36 37  1  0  0  0  0
 36 38  1  0  0  0  0
 38 39  1  0  0  0  0
 38 40  2  0  0  0  0
 40 41  1  0  0  0  0
 41 42  1  0  0  0  0
 42 43  1  0  0  0  0
 42 44  1  0  0  0  0
 42 45  1  0  0  0  0
 41 46  1  0  0  0  0
 46 47  1  0  0  0  0
 46 48  1  0  0  0  0
 46 49  1  0  0  0  0
 41 50  1  0  0  0  0
 50 51  1  0  0  0  0
 50 52  1  0  0  0  0
 50 53  1  0  0  0  0
 40 54  1  0  0  0  0
 54 55  1  0  0  0  0
 54 56  2  0  0  0  0
 35 56  1  0  0  0  0
 56 57  1  0  0  0  0
 13 58  1  0  0  0  0
 10 59  1  0  0  0  0
  9 60  1  0  0  0  0
  9 61  1  0  0  0  0
  1 62  1  0  0  0  0
  1 63  1  0  0  0  0
  1 64  1  0  0  0  0
M  END
> <Potency>
10.9306371139744

> <pIC50>
4.961354523592894

> <Outcome>
Inactive

> <is_active>
0

$$$$

  Mrv1921 08232120312D          

 61 64  0  0  0  0            999 V2000
   -1.6500    1.8118    0.0000 C   0  0  0  0  0  0  0  0  0  0  0  0
   -1.2375    1.0974    0.0000 C   0  0  0  0  0  0  0  0  0  0  0  0
   -1.9520    0.6849    0.0000 C   0  0  0  0  0  0  0  0  0  0  0  0
   -2.7699    0.5772    0.0000 H   0  0  0  0  0  0  0  0  0  0  0  0
   -2.1655   -0.1120    0.0000 H   0  0  0  0  0  0  0  0  0  0  0  0
   -1.2975    0.1826    0.0000 H   0  0  0  0  0  0  0  0  0  0  0  0
   -0.5230    1.5099    0.0000 C   0  0  0  0  0  0  0  0  0  0  0  0
   -0.4153    0.6919    0.0000 H   0  0  0  0  0  0  0  0  0  0  0  0
    0.2739    1.2963    0.0000 H   0  0  0  0  0  0  0  0  0  0  0  0
   -0.0208    2.1644    0.0000 H   0  0  0  0  0  0  0  0  0  0  0  0
   -0.8250    0.3829    0.0000 C   0  0  0  0  0  0  0  0  0  0  0  0
    0.0000    0.3829    0.0000 C   0  0  0  0  0  0  0  0  0  0  0  0
    0.8194    0.4785    0.0000 H   0  0  0  0  0  0  0  0  0  0  0  0
    0.4125   -0.3316    0.0000 C   0  0  0  0  0  0  0  0  0  0  0  0
    0.8250   -1.0461    0.0000 H   0  0  0  0  0  0  0  0  0  0  0  0
    0.0000   -1.0461    0.0000 C   0  0  0  0  0  0  0  0  0  0  0  0
    0.4125   -1.7605    0.0000 N   0  0  0  0  0  0  0  0  0  0  0  0
    0.0000   -2.4750    0.0000 C   0  0  0  0  0  0  0  0  0  0  0  0
    0.4125   -3.1895    0.0000 O   0  0  0  0  0  0  0  0  0  0  0  0
   -0.8250   -2.4750    0.0000 C   0  0  0  0  0  0  0  0  0  0  0  0
   -1.3099   -3.1424    0.0000 C   0  0  0  0  0  0  0  0  0  0  0  0
   -1.0550   -3.9271    0.0000 H   0  0  0  0  0  0  0  0  0  0  0  0
   -2.0945   -2.8875    0.0000 C   0  0  0  0  0  0  0  0  0  0  0  0
   -2.7620   -3.3724    0.0000 H   0  0  0  0  0  0  0  0  0  0  0  0
   -2.0945   -2.0625    0.0000 C   0  0  0  0  0  0  0  0  0  0  0  0
   -2.7620   -1.5776    0.0000 H   0  0  0  0  0  0  0  0  0  0  0  0
   -1.3099   -1.8076    0.0000 O   0  0  0  0  0  0  0  0  0  0  0  0
    1.2375   -1.7605    0.0000 C   0  0  0  0  0  0  0  0  0  0  0  0
    1.6500   -2.4750    0.0000 C   0  0  0  0  0  0  0  0  0  0  0  0
    1.2375   -3.1895    0.0000 O   0  0  0  0  0  0  0  0  0  0  0  0
    2.4750   -2.4750    0.0000 N   0  0  0  0  0  0  0  0  0  0  0  0
    2.8875   -3.1895    0.0000 C   0  0  0  0  0  0  0  0  0  0  0  0
    3.7125   -3.1895    0.0000 C   0  0  0  0  0  0  0  0  0  0  0  0
    4.1250   -2.4750    0.0000 H   0  0  0  0  0  0  0  0  0  0  0  0
    4.1250   -3.9039    0.0000 C   0  0  0  0  0  0  0  0  0  0  0  0
    4.9500   -3.9039    0.0000 H   0  0  0  0  0  0  0  0  0  0  0  0
    3.7125   -4.6184    0.0000 C   0  0  0  0  0  0  0  0  0  0  0  0
    4.1250   -5.3329    0.0000 H   0  0  0  0  0  0  0  0  0  0  0  0
    2.8875   -4.6184    0.0000 C   0  0  0  0  0  0  0  0  0  0  0  0
    2.4750   -5.3329    0.0000 H   0  0  0  0  0  0  0  0  0  0  0  0
    2.4750   -3.9039    0.0000 C   0  0  0  0  0  0  0  0  0  0  0  0
    1.6500   -3.9039    0.0000 H   0  0  0  0  0  0  0  0  0  0  0  0
    2.8875   -1.7605    0.0000 H   0  0  0  0  0  0  0  0  0  0  0  0
    1.6500   -1.0461    0.0000 C   0  0  0  0  0  0  0  0  0  0  0  0
    1.2375   -0.3316    0.0000 C   0  0  0  0  0  0  0  0  0  0  0  0
    2.0625   -0.3316    0.0000 H   0  0  0  0  0  0  0  0  0  0  0  0
    1.6500    0.3829    0.0000 C   0  0  0  0  0  0  0  0  0  0  0  0
    1.6973    1.2065    0.0000 H   0  0  0  0  0  0  0  0  0  0  0  0
    2.4750    0.3829    0.0000 C   0  0  0  0  0  0  0  0  0  0  0  0
    2.8875    1.0974    0.0000 H   0  0  0  0  0  0  0  0  0  0  0  0
    2.8875   -0.3316    0.0000 N   0  0  0  0  0  0  0  0  0  0  0  0
    2.4750   -1.0461    0.0000 C   0  0  0  0  0  0  0  0  0  0  0  0
    2.0625   -1.7605    0.0000 H   0  0  0  0  0  0  0  0  0  0  0  0
    0.8250   -2.4750    0.0000 H   0  0  0  0  0  0  0  0  0  0  0  0
   -0.8250   -1.0461    0.0000 C   0  0  0  0  0  0  0  0  0  0  0  0
   -1.6498   -1.0281    0.0000 H   0  0  0  0  0  0  0  0  0  0  0  0
   -1.2375   -0.3316    0.0000 C   0  0  0  0  0  0  0  0  0  0  0  0
   -0.4125   -0.3316    0.0000 H   0  0  0  0  0  0  0  0  0  0  0  0
   -0.9355    2.2243    0.0000 H   0  0  0  0  0  0  0  0  0  0  0  0
   -2.0625    2.5263    0.0000 H   0  0  0  0  0  0  0  0  0  0  0  0
   -2.3645    1.3993    0.0000 H   0  0  0  0  0  0  0  0  0  0  0  0
  1  2  1  0  0  0  0
  2  3  1  0  0  0  0
  3  4  1  0  0  0  0
  3  5  1  0  0  0  0
  3  6  1  0  0  0  0
  2  7  1  0  0  0  0
  7  8  1  0  0  0  0
  7  9  1  0  0  0  0
  7 10  1  0  0  0  0
  2 11  1  0  0  0  0
 11 12  2  0  0  0  0
 12 13  1  0  0  0  0
 12 14  1  0  0  0  0
 14 15  1  0  0  0  0
 14 16  2  0  0  0  0
 16 17  1  0  0  0  0
 17 18  1  0  0  0  0
 18 19  2  0  0  0  0
 18 20  1  0  0  0  0
 20 21  2  0  0  0  0
 21 22  1  0  0  0  0
 21 23  1  0  0  0  0
 23 24  1  0  0  0  0
 23 25  2  0  0  0  0
 25 26  1  0  0  0  0
 25 27  1  0  0  0  0
 20 27  1  0  0  0  0
 17 28  1  0  0  0  0
 28 29  1  0  0  0  0
 29 30  2  0  0  0  0
 29 31  1  0  0  0  0
 31 32  1  0  0  0  0
 32 33  2  0  0  0  0
 33 34  1  0  0  0  0
 33 35  1  0  0  0  0
 35 36  1  0  0  0  0
 35 37  2  0  0  0  0
 37 38  1  0  0  0  0
 37 39  1  0  0  0  0
 39 40  1  0  0  0  0
 39 41  2  0  0  0  0
 32 41  1  0  0  0  0
 41 42  1  0  0  0  0
 31 43  1  0  0  0  0
 28 44  1  0  0  0  0
 44 45  2  0  0  0  0
 45 46  1  0  0  0  0
 45 47  1  0  0  0  0
 47 48  1  0  0  0  0
 47 49  2  0  0  0  0
 49 50  1  0  0  0  0
 49 51  1  0  0  0  0
 51 52  2  0  0  0  0
 44 52  1  0  0  0  0
 52 53  1  0  0  0  0
 28 54  1  0  0  0  0
 16 55  1  0  0  0  0
 55 56  1  0  0  0  0
 55 57  2  0  0  0  0
 11 57  1  0  0  0  0
 57 58  1  0  0  0  0
  1 59  1  0  0  0  0
  1 60  1  0  0  0  0
  1 61  1  0  0  0  0
M  END
> <Potency>
11.2085795544034

> <pIC50>
4.950449421372167

> <Outcome>
Inactive

> <is_active>
0

$$$$

  Mrv1921 08232120312D          

 79 83  0  0  0  0            999 V2000
    0.0000   -9.0750    0.0000 C   0  0  0  0  0  0  0  0  0  0  0  0
    0.7145   -8.6625    0.0000 O   0  0  0  0  0  0  0  0  0  0  0  0
    0.7145   -7.8375    0.0000 C   0  0  0  0  0  0  0  0  0  0  0  0
    0.0000   -7.4250    0.0000 C   0  0  0  0  0  0  0  0  0  0  0  0
   -0.7145   -7.8375    0.0000 H   0  0  0  0  0  0  0  0  0  0  0  0
    0.0000   -6.6000    0.0000 C   0  0  0  0  0  0  0  0  0  0  0  0
   -0.0179   -5.7752    0.0000 H   0  0  0  0  0  0  0  0  0  0  0  0
    0.7145   -6.1875    0.0000 C   0  0  0  0  0  0  0  0  0  0  0  0
    0.7145   -5.3625    0.0000 N   0  0  0  0  0  0  0  0  0  0  0  0
    0.0000   -4.9500    0.0000 C   0  0  0  0  0  0  0  0  0  0  0  0
    0.0000   -4.1250    0.0000 O   0  0  0  0  0  0  0  0  0  0  0  0
   -0.7145   -5.3625    0.0000 C   0  0  0  0  0  0  0  0  0  0  0  0
   -1.4681   -5.0269    0.0000 C   0  0  0  0  0  0  0  0  0  0  0  0
   -1.6397   -4.2200    0.0000 H   0  0  0  0  0  0  0  0  0  0  0  0
   -2.0202   -5.6400    0.0000 C   0  0  0  0  0  0  0  0  0  0  0  0
   -2.8407   -5.5538    0.0000 H   0  0  0  0  0  0  0  0  0  0  0  0
   -1.6077   -6.3545    0.0000 C   0  0  0  0  0  0  0  0  0  0  0  0
   -1.9432   -7.1082    0.0000 H   0  0  0  0  0  0  0  0  0  0  0  0
   -0.8007   -6.1830    0.0000 O   0  0  0  0  0  0  0  0  0  0  0  0
    1.4289   -4.9500    0.0000 C   0  0  0  0  0  0  0  0  0  0  0  0
    2.1434   -5.3625    0.0000 C   0  0  0  0  0  0  0  0  0  0  0  0
    2.1434   -6.1875    0.0000 O   0  0  0  0  0  0  0  0  0  0  0  0
    2.8579   -4.9500    0.0000 N   0  0  0  0  0  0  0  0  0  0  0  0
    3.5724   -5.3625    0.0000 C   0  0  0  0  0  0  0  0  0  0  0  0
    4.2868   -4.9500    0.0000 C   0  0  0  0  0  0  0  0  0  0  0  0
    5.0013   -5.3625    0.0000 C   0  0  0  0  0  0  0  0  0  0  0  0
    5.7158   -4.9500    0.0000 C   0  0  0  0  0  0  0  0  0  0  0  0
    5.7158   -4.1250    0.0000 H   0  0  0  0  0  0  0  0  0  0  0  0
    6.4302   -5.3625    0.0000 C   0  0  0  0  0  0  0  0  0  0  0  0
    7.1447   -4.9500    0.0000 H   0  0  0  0  0  0  0  0  0  0  0  0
    6.4302   -6.1875    0.0000 C   0  0  0  0  0  0  0  0  0  0  0  0
    7.1447   -6.6000    0.0000 H   0  0  0  0  0  0  0  0  0  0  0  0
    5.7158   -6.6000    0.0000 C   0  0  0  0  0  0  0  0  0  0  0  0
    5.7158   -7.4250    0.0000 F   0  0  0  0  0  0  0  0  0  0  0  0
    5.0013   -6.1875    0.0000 C   0  0  0  0  0  0  0  0  0  0  0  0
    4.2868   -6.6000    0.0000 H   0  0  0  0  0  0  0  0  0  0  0  0
    4.6571   -4.2128    0.0000 H   0  0  0  0  0  0  0  0  0  0  0  0
    3.9166   -4.2128    0.0000 H   0  0  0  0  0  0  0  0  0  0  0  0
    3.2021   -6.0997    0.0000 H   0  0  0  0  0  0  0  0  0  0  0  0
    3.9426   -6.0997    0.0000 H   0  0  0  0  0  0  0  0  0  0  0  0
    2.8579   -4.1250    0.0000 H   0  0  0  0  0  0  0  0  0  0  0  0
    1.4289   -4.1250    0.0000 C   0  0  0  0  0  0  0  0  0  0  0  0
    0.7145   -3.7125    0.0000 C   0  0  0  0  0  0  0  0  0  0  0  0
    0.7145   -4.5375    0.0000 H   0  0  0  0  0  0  0  0  0  0  0  0
    0.7145   -2.8875    0.0000 C   0  0  0  0  0  0  0  0  0  0  0  0
    0.0000   -2.4750    0.0000 H   0  0  0  0  0  0  0  0  0  0  0  0
    1.4289   -2.4750    0.0000 C   0  0  0  0  0  0  0  0  0  0  0  0
    1.4289   -1.6500    0.0000 H   0  0  0  0  0  0  0  0  0  0  0  0
    2.1434   -2.8875    0.0000 N   0  0  0  0  0  0  0  0  0  0  0  0
    2.1434   -3.7125    0.0000 C   0  0  0  0  0  0  0  0  0  0  0  0
    2.1434   -4.5375    0.0000 H   0  0  0  0  0  0  0  0  0  0  0  0
    1.4289   -5.7750    0.0000 H   0  0  0  0  0  0  0  0  0  0  0  0
    1.4289   -6.6000    0.0000 C   0  0  0  0  0  0  0  0  0  0  0  0
    2.1434   -7.0125    0.0000 H   0  0  0  0  0  0  0  0  0  0  0  0
    1.4289   -7.4250    0.0000 C   0  0  0  0  0  0  0  0  0  0  0  0
    2.1434   -7.8375    0.0000 N   0  0  0  0  0  0  0  0  0  0  0  0
    2.8579   -7.4250    0.0000 C   0  0  0  0  0  0  0  0  0  0  0  0
    2.8579   -6.6000    0.0000 O   0  0  0  0  0  0  0  0  0  0  0  0
    3.5724   -7.8375    0.0000 C   0  0  0  0  0  0  0  0  0  0  0  0
    4.2868   -7.4250    0.0000 C   0  0  0  0  0  0  0  0  0  0  0  0
    3.5724   -7.0125    0.0000 H   0  0  0  0  0  0  0  0  0  0  0  0
    5.0013   -7.0125    0.0000 H   0  0  0  0  0  0  0  0  0  0  0  0
    5.0013   -7.8375    0.0000 C   0  0  0  0  0  0  0  0  0  0  0  0
    5.7158   -8.2500    0.0000 H   0  0  0  0  0  0  0  0  0  0  0  0
    4.2868   -8.2500    0.0000 H   0  0  0  0  0  0  0  0  0  0  0  0
    5.0013   -8.6625    0.0000 C   0  0  0  0  0  0  0  0  0  0  0  0
    5.1446   -9.4750    0.0000 H   0  0  0  0  0  0  0  0  0  0  0  0
    5.6333   -9.1928    0.0000 H   0  0  0  0  0  0  0  0  0  0  0  0
    4.2868   -9.0750    0.0000 C   0  0  0  0  0  0  0  0  0  0  0  0
    3.6732   -9.6264    0.0000 H   0  0  0  0  0  0  0  0  0  0  0  0
    4.1871   -9.8939    0.0000 H   0  0  0  0  0  0  0  0  0  0  0  0
    3.5724   -8.6625    0.0000 C   0  0  0  0  0  0  0  0  0  0  0  0
    2.7654   -8.8339    0.0000 H   0  0  0  0  0  0  0  0  0  0  0  0
    3.0872   -9.3298    0.0000 H   0  0  0  0  0  0  0  0  0  0  0  0
    2.8579   -8.2500    0.0000 H   0  0  0  0  0  0  0  0  0  0  0  0
    2.1434   -8.6625    0.0000 H   0  0  0  0  0  0  0  0  0  0  0  0
   -0.4125   -8.3605    0.0000 H   0  0  0  0  0  0  0  0  0  0  0  0
   -0.7145   -9.4875    0.0000 H   0  0  0  0  0  0  0  0  0  0  0  0
    0.4125   -9.7895    0.0000 H   0  0  0  0  0  0  0  0  0  0  0  0
  1  2  1  0  0  0  0
  2  3  1  0  0  0  0
  3  4  2  0  0  0  0
  4  5  1  0  0  0  0
  4  6  1  0  0  0  0
  6  7  1  0  0  0  0
  6  8  2  0  0  0  0
  8  9  1  0  0  0  0
  9 10  1  0  0  0  0
 10 11  2  0  0  0  0
 10 12  1  0  0  0  0
 12 13  2  0  0  0  0
 13 14  1  0  0  0  0
 13 15  1  0  0  0  0
 15 16  1  0  0  0  0
 15 17  2  0  0  0  0
 17 18  1  0  0  0  0
 17 19  1  0  0  0  0
 12 19  1  0  0  0  0
  9 20  1  0  0  0  0
 20 21  1  0  0  0  0
 21 22  2  0  0  0  0
 21 23  1  0  0  0  0
 23 24  1  0  0  0  0
 24 25  1  0  0  0  0
 25 26  1  0  0  0  0
 26 27  2  0  0  0  0
 27 28  1  0  0  0  0
 27 29  1  0  0  0  0
 29 30  1  0  0  0  0
 29 31  2  0  0  0  0
 31 32  1  0  0  0  0
 31 33  1  0  0  0  0
 33 34  1  0  0  0  0
 33 35  2  0  0  0  0
 26 35  1  0  0  0  0
 35 36  1  0  0  0  0
 25 37  1  0  0  0  0
 25 38  1  0  0  0  0
 24 39  1  0  0  0  0
 24 40  1  0  0  0  0
 23 41  1  0  0  0  0
 20 42  1  0  0  0  0
 42 43  2  0  0  0  0
 43 44  1  0  0  0  0
 43 45  1  0  0  0  0
 45 46  1  0  0  0  0
 45 47  2  0  0  0  0
 47 48  1  0  0  0  0
 47 49  1  0  0  0  0
 49 50  2  0  0  0  0
 42 50  1  0  0  0  0
 50 51  1  0  0  0  0
 20 52  1  0  0  0  0
  8 53  1  0  0  0  0
 53 54  1  0  0  0  0
 53 55  2  0  0  0  0
  3 55  1  0  0  0  0
 55 56  1  0  0  0  0
 56 57  1  0  0  0  0
 57 58  2  0  0  0  0
 57 59  1  0  0  0  0
 59 60  1  0  0  0  0
 60 61  1  0  0  0  0
 60 62  1  0  0  0  0
 60 63  1  0  0  0  0
 63 64  1  0  0  0  0
 63 65  1  0  0  0  0
 63 66  1  0  0  0  0
 66 67  1  0  0  0  0
 66 68  1  0  0  0  0
 66 69  1  0  0  0  0
 69 70  1  0  0  0  0
 69 71  1  0  0  0  0
 69 72  1  0  0  0  0
 59 72  1  0  0  0  0
 72 73  1  0  0  0  0
 72 74  1  0  0  0  0
 59 75  1  0  0  0  0
 56 76  1  0  0  0  0
  1 77  1  0  0  0  0
  1 78  1  0  0  0  0
  1 79  1  0  0  0  0
M  END
> <Potency>
62.7027513065601

> <pIC50>
4.2027134025338455

> <Outcome>
Inactive

> <is_active>
0

$$$$

  Mrv1921 08232120312D          

 70 75  0  0  0  0            999 V2000
   -4.6806   -0.8944    0.0000 O   0  0  0  0  0  0  0  0  0  0  0  0
   -4.9507   -1.6740    0.0000 C   0  0  0  0  0  0  0  0  0  0  0  0
   -5.7608   -1.8299    0.0000 N   0  0  0  0  0  0  0  0  0  0  0  0
   -6.3009   -1.2062    0.0000 C   0  0  0  0  0  0  0  0  0  0  0  0
   -7.1110   -1.3622    0.0000 C   0  0  0  0  0  0  0  0  0  0  0  0
   -7.6511   -0.7385    0.0000 C   0  0  0  0  0  0  0  0  0  0  0  0
   -8.4612   -0.8944    0.0000 C   0  0  0  0  0  0  0  0  0  0  0  0
   -8.7313   -1.6740    0.0000 H   0  0  0  0  0  0  0  0  0  0  0  0
   -9.0013   -0.2708    0.0000 C   0  0  0  0  0  0  0  0  0  0  0  0
   -9.8115   -0.4267    0.0000 H   0  0  0  0  0  0  0  0  0  0  0  0
   -8.7313    0.5088    0.0000 C   0  0  0  0  0  0  0  0  0  0  0  0
   -9.2714    1.1324    0.0000 H   0  0  0  0  0  0  0  0  0  0  0  0
   -7.9212    0.6647    0.0000 C   0  0  0  0  0  0  0  0  0  0  0  0
   -7.6511    1.4442    0.0000 F   0  0  0  0  0  0  0  0  0  0  0  0
   -7.3811    0.0410    0.0000 C   0  0  0  0  0  0  0  0  0  0  0  0
   -6.5709    0.1970    0.0000 H   0  0  0  0  0  0  0  0  0  0  0  0
   -7.7022   -1.9376    0.0000 H   0  0  0  0  0  0  0  0  0  0  0  0
   -7.0025   -2.1800    0.0000 H   0  0  0  0  0  0  0  0  0  0  0  0
   -5.7097   -0.6308    0.0000 H   0  0  0  0  0  0  0  0  0  0  0  0
   -6.4094   -0.3884    0.0000 H   0  0  0  0  0  0  0  0  0  0  0  0
   -6.0308   -2.6094    0.0000 H   0  0  0  0  0  0  0  0  0  0  0  0
   -4.4106   -2.2976    0.0000 C   0  0  0  0  0  0  0  0  0  0  0  0
   -4.6806   -3.0772    0.0000 C   0  0  0  0  0  0  0  0  0  0  0  0
   -4.1405   -3.7008    0.0000 C   0  0  0  0  0  0  0  0  0  0  0  0
   -3.8705   -2.9213    0.0000 H   0  0  0  0  0  0  0  0  0  0  0  0
   -4.4106   -4.4804    0.0000 C   0  0  0  0  0  0  0  0  0  0  0  0
   -3.8705   -5.1040    0.0000 H   0  0  0  0  0  0  0  0  0  0  0  0
   -5.2207   -4.6363    0.0000 C   0  0  0  0  0  0  0  0  0  0  0  0
   -5.4908   -5.4158    0.0000 H   0  0  0  0  0  0  0  0  0  0  0  0
   -5.7608   -4.0126    0.0000 N   0  0  0  0  0  0  0  0  0  0  0  0
   -5.4908   -3.2331    0.0000 C   0  0  0  0  0  0  0  0  0  0  0  0
   -4.9507   -3.8567    0.0000 H   0  0  0  0  0  0  0  0  0  0  0  0
   -3.6004   -2.1417    0.0000 N   0  0  0  0  0  0  0  0  0  0  0  0
   -3.3304   -1.3622    0.0000 C   0  0  0  0  0  0  0  0  0  0  0  0
   -3.8705   -0.7385    0.0000 O   0  0  0  0  0  0  0  0  0  0  0  0
   -2.5203   -1.2062    0.0000 C   0  0  0  0  0  0  0  0  0  0  0  0
   -2.1702   -0.4592    0.0000 C   0  0  0  0  0  0  0  0  0  0  0  0
   -2.5688    0.2631    0.0000 H   0  0  0  0  0  0  0  0  0  0  0  0
   -1.3516   -0.5613    0.0000 C   0  0  0  0  0  0  0  0  0  0  0  0
   -0.7878    0.0411    0.0000 H   0  0  0  0  0  0  0  0  0  0  0  0
   -1.1956   -1.3714    0.0000 C   0  0  0  0  0  0  0  0  0  0  0  0
   -0.4486   -1.7214    0.0000 H   0  0  0  0  0  0  0  0  0  0  0  0
   -1.9179   -1.7700    0.0000 O   0  0  0  0  0  0  0  0  0  0  0  0
   -3.0604   -2.7653    0.0000 C   0  0  0  0  0  0  0  0  0  0  0  0
   -2.2502   -2.6094    0.0000 C   0  0  0  0  0  0  0  0  0  0  0  0
   -2.7766   -1.9742    0.0000 H   0  0  0  0  0  0  0  0  0  0  0  0
   -1.7101   -3.2331    0.0000 C   0  0  0  0  0  0  0  0  0  0  0  0
   -0.9000   -3.0772    0.0000 H   0  0  0  0  0  0  0  0  0  0  0  0
   -1.9802   -4.0126    0.0000 C   0  0  0  0  0  0  0  0  0  0  0  0
   -1.4401   -4.6363    0.0000 C   0  0  0  0  0  0  0  0  0  0  0  0
   -1.6272   -5.4398    0.0000 N   0  0  0  0  0  0  0  0  0  0  0  0
   -0.9208   -5.8660    0.0000 N   0  0  0  0  0  0  0  0  0  0  0  0
   -0.8504   -6.6880    0.0000 H   0  0  0  0  0  0  0  0  0  0  0  0
   -0.2972   -5.3259    0.0000 C   0  0  0  0  0  0  0  0  0  0  0  0
   -0.6181   -4.5659    0.0000 C   0  0  0  0  0  0  0  0  0  0  0  0
   -0.1204   -3.9079    0.0000 C   0  0  0  0  0  0  0  0  0  0  0  0
    0.6983   -4.0100    0.0000 O   0  0  0  0  0  0  0  0  0  0  0  0
    1.0192   -4.7700    0.0000 C   0  0  0  0  0  0  0  0  0  0  0  0
    0.5215   -5.4280    0.0000 C   0  0  0  0  0  0  0  0  0  0  0  0
    0.4672   -6.2512    0.0000 H   0  0  0  0  0  0  0  0  0  0  0  0
    1.1494   -5.9631    0.0000 H   0  0  0  0  0  0  0  0  0  0  0  0
    1.7050   -5.2287    0.0000 H   0  0  0  0  0  0  0  0  0  0  0  0
    1.7966   -4.4938    0.0000 H   0  0  0  0  0  0  0  0  0  0  0  0
   -0.0661   -3.0847    0.0000 H   0  0  0  0  0  0  0  0  0  0  0  0
   -0.7483   -3.3728    0.0000 H   0  0  0  0  0  0  0  0  0  0  0  0
   -2.7903   -4.1685    0.0000 C   0  0  0  0  0  0  0  0  0  0  0  0
   -3.0604   -4.9481    0.0000 H   0  0  0  0  0  0  0  0  0  0  0  0
   -3.3304   -3.5449    0.0000 C   0  0  0  0  0  0  0  0  0  0  0  0
   -2.5203   -3.3890    0.0000 H   0  0  0  0  0  0  0  0  0  0  0  0
   -5.2207   -2.4535    0.0000 H   0  0  0  0  0  0  0  0  0  0  0  0
  1  2  2  0  0  0  0
  2  3  1  0  0  0  0
  3  4  1  0  0  0  0
  4  5  1  0  0  0  0
  5  6  1  0  0  0  0
  6  7  2  0  0  0  0
  7  8  1  0  0  0  0
  7  9  1  0  0  0  0
  9 10  1  0  0  0  0
  9 11  2  0  0  0  0
 11 12  1  0  0  0  0
 11 13  1  0  0  0  0
 13 14  1  0  0  0  0
 13 15  2  0  0  0  0
  6 15  1  0  0  0  0
 15 16  1  0  0  0  0
  5 17  1  0  0  0  0
  5 18  1  0  0  0  0
  4 19  1  0  0  0  0
  4 20  1  0  0  0  0
  3 21  1  0  0  0  0
  2 22  1  0  0  0  0
 22 23  1  0  0  0  0
 23 24  2  0  0  0  0
 24 25  1  0  0  0  0
 24 26  1  0  0  0  0
 26 27  1  0  0  0  0
 26 28  2  0  0  0  0
 28 29  1  0  0  0  0
 28 30  1  0  0  0  0
 30 31  2  0  0  0  0
 23 31  1  0  0  0  0
 31 32  1  0  0  0  0
 22 33  1  0  0  0  0
 33 34  1  0  0  0  0
 34 35  2  0  0  0  0
 34 36  1  0  0  0  0
 36 37  2  0  0  0  0
 37 38  1  0  0  0  0
 37 39  1  0  0  0  0
 39 40  1  0  0  0  0
 39 41  2  0  0  0  0
 41 42  1  0  0  0  0
 41 43  1  0  0  0  0
 36 43  1  0  0  0  0
 33 44  1  0  0  0  0
 44 45  2  0  0  0  0
 45 46  1  0  0  0  0
 45 47  1  0  0  0  0
 47 48  1  0  0  0  0
 47 49  2  0  0  0  0
 49 50  1  0  0  0  0
 50 51  2  0  0  0  0
 51 52  1  0  0  0  0
 52 53  1  0  0  0  0
 52 54  1  0  0  0  0
 54 55  2  0  0  0  0
 50 55  1  0  0  0  0
 55 56  1  0  0  0  0
 56 57  1  0  0  0  0
 57 58  1  0  0  0  0
 58 59  1  0  0  0  0
 54 59  1  0  0  0  0
 59 60  1  0  0  0  0
 59 61  1  0  0  0  0
 58 62  1  0  0  0  0
 58 63  1  0  0  0  0
 56 64  1  0  0  0  0
 56 65  1  0  0  0  0
 49 66  1  0  0  0  0
 66 67  1  0  0  0  0
 66 68  2  0  0  0  0
 44 68  1  0  0  0  0
 68 69  1  0  0  0  0
 22 70  1  0  0  0  0
M  END
> <Potency>
43.0300953085258

> <pIC50>
4.3662276919857455

> <Outcome>
Inactive

> <is_active>
0

$$$$

  Mrv1921 08232120312D          

 68 71  0  0  0  0            999 V2000
   -2.7150    1.1164    0.0000 C   0  0  0  0  0  0  0  0  0  0  0  0
   -1.9680    0.7663    0.0000 O   0  0  0  0  0  0  0  0  0  0  0  0
   -1.8976   -0.0557    0.0000 C   0  0  0  0  0  0  0  0  0  0  0  0
   -1.3338    0.5466    0.0000 O   0  0  0  0  0  0  0  0  0  0  0  0
   -2.5743   -0.5276    0.0000 C   0  0  0  0  0  0  0  0  0  0  0  0
   -2.5039   -1.3496    0.0000 C   0  0  0  0  0  0  0  0  0  0  0  0
   -1.7569   -1.6997    0.0000 S   0  0  0  0  0  0  0  0  0  0  0  0
   -1.0802   -1.2277    0.0000 C   0  0  0  0  0  0  0  0  0  0  0  0
   -1.6203   -0.6041    0.0000 C   0  0  0  0  0  0  0  0  0  0  0  0
   -1.9928   -1.3402    0.0000 H   0  0  0  0  0  0  0  0  0  0  0  0
   -1.3502    0.1755    0.0000 C   0  0  0  0  0  0  0  0  0  0  0  0
   -0.9240    0.8818    0.0000 Cl  0  0  0  0  0  0  0  0  0  0  0  0
   -0.5401    0.3314    0.0000 C   0  0  0  0  0  0  0  0  0  0  0  0
    0.1110    0.8381    0.0000 H   0  0  0  0  0  0  0  0  0  0  0  0
    0.0000   -0.2923    0.0000 C   0  0  0  0  0  0  0  0  0  0  0  0
    0.5401   -0.9159    0.0000 H   0  0  0  0  0  0  0  0  0  0  0  0
   -0.2700   -1.0718    0.0000 C   0  0  0  0  0  0  0  0  0  0  0  0
    0.2700   -1.6954    0.0000 N   0  0  0  0  0  0  0  0  0  0  0  0
    0.0000   -2.4750    0.0000 C   0  0  0  0  0  0  0  0  0  0  0  0
    0.5401   -3.0986    0.0000 O   0  0  0  0  0  0  0  0  0  0  0  0
   -0.8101   -2.6309    0.0000 C   0  0  0  0  0  0  0  0  0  0  0  0
   -1.4125   -2.0671    0.0000 C   0  0  0  0  0  0  0  0  0  0  0  0
   -0.6075   -1.8865    0.0000 H   0  0  0  0  0  0  0  0  0  0  0  0
   -2.1348   -2.4658    0.0000 C   0  0  0  0  0  0  0  0  0  0  0  0
   -2.7947   -2.9608    0.0000 H   0  0  0  0  0  0  0  0  0  0  0  0
   -1.9788   -3.2759    0.0000 C   0  0  0  0  0  0  0  0  0  0  0  0
   -2.1800   -4.0760    0.0000 H   0  0  0  0  0  0  0  0  0  0  0  0
   -1.1602   -3.3780    0.0000 O   0  0  0  0  0  0  0  0  0  0  0  0
    1.0802   -1.5395    0.0000 C   0  0  0  0  0  0  0  0  0  0  0  0
    1.6203   -2.1632    0.0000 C   0  0  0  0  0  0  0  0  0  0  0  0
    1.3502   -2.9427    0.0000 O   0  0  0  0  0  0  0  0  0  0  0  0
    2.4304   -2.0073    0.0000 N   0  0  0  0  0  0  0  0  0  0  0  0
    2.9705   -2.6309    0.0000 C   0  0  0  0  0  0  0  0  0  0  0  0
    3.7806   -2.4750    0.0000 C   0  0  0  0  0  0  0  0  0  0  0  0
    4.3207   -3.0986    0.0000 C   0  0  0  0  0  0  0  0  0  0  0  0
    4.0507   -3.8782    0.0000 C   0  0  0  0  0  0  0  0  0  0  0  0
    3.2405   -4.0341    0.0000 H   0  0  0  0  0  0  0  0  0  0  0  0
    4.5908   -4.5018    0.0000 C   0  0  0  0  0  0  0  0  0  0  0  0
    4.3207   -5.2814    0.0000 H   0  0  0  0  0  0  0  0  0  0  0  0
    5.4009   -4.3459    0.0000 C   0  0  0  0  0  0  0  0  0  0  0  0
    5.9410   -4.9696    0.0000 H   0  0  0  0  0  0  0  0  0  0  0  0
    5.6709   -3.5664    0.0000 C   0  0  0  0  0  0  0  0  0  0  0  0
    6.4811   -3.4105    0.0000 F   0  0  0  0  0  0  0  0  0  0  0  0
    5.1308   -2.9427    0.0000 C   0  0  0  0  0  0  0  0  0  0  0  0
    5.4009   -2.1632    0.0000 H   0  0  0  0  0  0  0  0  0  0  0  0
    4.3718   -1.8996    0.0000 H   0  0  0  0  0  0  0  0  0  0  0  0
    3.6721   -1.6572    0.0000 H   0  0  0  0  0  0  0  0  0  0  0  0
    2.3793   -3.2063    0.0000 H   0  0  0  0  0  0  0  0  0  0  0  0
    3.0790   -3.4487    0.0000 H   0  0  0  0  0  0  0  0  0  0  0  0
    2.7004   -1.2277    0.0000 H   0  0  0  0  0  0  0  0  0  0  0  0
    1.3502   -0.7600    0.0000 C   0  0  0  0  0  0  0  0  0  0  0  0
    0.8101   -0.1363    0.0000 C   0  0  0  0  0  0  0  0  0  0  0  0
    0.2700    0.4873    0.0000 H   0  0  0  0  0  0  0  0  0  0  0  0
    1.0802    0.6432    0.0000 C   0  0  0  0  0  0  0  0  0  0  0  0
    0.9243    1.4533    0.0000 H   0  0  0  0  0  0  0  0  0  0  0  0
    1.8903    0.7991    0.0000 C   0  0  0  0  0  0  0  0  0  0  0  0
    2.1604    1.5787    0.0000 H   0  0  0  0  0  0  0  0  0  0  0  0
    2.4304    0.1755    0.0000 N   0  0  0  0  0  0  0  0  0  0  0  0
    2.1604   -0.6041    0.0000 C   0  0  0  0  0  0  0  0  0  0  0  0
    1.8903   -1.3836    0.0000 H   0  0  0  0  0  0  0  0  0  0  0  0
    0.8101   -2.3191    0.0000 H   0  0  0  0  0  0  0  0  0  0  0  0
   -3.3204   -1.4677    0.0000 H   0  0  0  0  0  0  0  0  0  0  0  0
   -2.8968   -2.0750    0.0000 H   0  0  0  0  0  0  0  0  0  0  0  0
   -3.0848    0.1205    0.0000 H   0  0  0  0  0  0  0  0  0  0  0  0
   -3.3990   -0.5501    0.0000 H   0  0  0  0  0  0  0  0  0  0  0  0
   -2.3650    1.8634    0.0000 H   0  0  0  0  0  0  0  0  0  0  0  0
   -3.4621    1.4664    0.0000 H   0  0  0  0  0  0  0  0  0  0  0  0
   -3.0651    0.3693    0.0000 H   0  0  0  0  0  0  0  0  0  0  0  0
  1  2  1  0  0  0  0
  2  3  1  0  0  0  0
  3  4  2  0  0  0  0
  3  5  1  0  0  0  0
  5  6  1  0  0  0  0
  6  7  1  0  0  0  0
  7  8  1  0  0  0  0
  8  9  2  0  0  0  0
  9 10  1  0  0  0  0
  9 11  1  0  0  0  0
 11 12  1  0  0  0  0
 11 13  2  0  0  0  0
 13 14  1  0  0  0  0
 13 15  1  0  0  0  0
 15 16  1  0  0  0  0
 15 17  2  0  0  0  0
  8 17  1  0  0  0  0
 17 18  1  0  0  0  0
 18 19  1  0  0  0  0
 19 20  2  0  0  0  0
 19 21  1  0  0  0  0
 21 22  2  0  0  0  0
 22 23  1  0  0  0  0
 22 24  1  0  0  0  0
 24 25  1  0  0  0  0
 24 26  2  0  0  0  0
 26 27  1  0  0  0  0
 26 28  1  0  0  0  0
 21 28  1  0  0  0  0
 18 29  1  0  0  0  0
 29 30  1  0  0  0  0
 30 31  2  0  0  0  0
 30 32  1  0  0  0  0
 32 33  1  0  0  0  0
 33 34  1  0  0  0  0
 34 35  1  0  0  0  0
 35 36  2  0  0  0  0
 36 37  1  0  0  0  0
 36 38  1  0  0  0  0
 38 39  1  0  0  0  0
 38 40  2  0  0  0  0
 40 41  1  0  0  0  0
 40 42  1  0  0  0  0
 42 43  1  0  0  0  0
 42 44  2  0  0  0  0
 35 44  1  0  0  0  0
 44 45  1  0  0  0  0
 34 46  1  0  0  0  0
 34 47  1  0  0  0  0
 33 48  1  0  0  0  0
 33 49  1  0  0  0  0
 32 50  1  0  0  0  0
 29 51  1  0  0  0  0
 51 52  2  0  0  0  0
 52 53  1  0  0  0  0
 52 54  1  0  0  0  0
 54 55  1  0  0  0  0
 54 56  2  0  0  0  0
 56 57  1  0  0  0  0
 56 58  1  0  0  0  0
 58 59  2  0  0  0  0
 51 59  1  0  0  0  0
 59 60  1  0  0  0  0
 29 61  1  0  0  0  0
  6 62  1  0  0  0  0
  6 63  1  0  0  0  0
  5 64  1  0  0  0  0
  5 65  1  0  0  0  0
  1 66  1  0  0  0  0
  1 67  1  0  0  0  0
  1 68  1  0  0  0  0
M  END
> <Potency>
16.6406317542108

> <pIC50>
4.778830189934748

> <Outcome>
Inactive

> <is_active>
0

$$$$

  Mrv1921 08232120312D          

 69 73  0  0  0  0            999 V2000
   -3.7951   -0.4776    0.0000 O   0  0  0  0  0  0  0  0  0  0  0  0
   -3.5554    0.3118    0.0000 C   0  0  0  0  0  0  0  0  0  0  0  0
   -4.3655    0.4677    0.0000 N   0  0  0  0  0  0  0  0  0  0  0  0
   -4.9056   -0.1559    0.0000 C   0  0  0  0  0  0  0  0  0  0  0  0
   -5.7158   -0.0000    0.0000 C   0  0  0  0  0  0  0  0  0  0  0  0
   -6.2559   -0.6236    0.0000 C   0  0  0  0  0  0  0  0  0  0  0  0
   -5.9858   -1.4032    0.0000 C   0  0  0  0  0  0  0  0  0  0  0  0
   -5.1757   -1.5591    0.0000 H   0  0  0  0  0  0  0  0  0  0  0  0
   -6.5259   -2.0268    0.0000 C   0  0  0  0  0  0  0  0  0  0  0  0
   -6.2559   -2.8064    0.0000 H   0  0  0  0  0  0  0  0  0  0  0  0
   -7.3360   -1.8709    0.0000 C   0  0  0  0  0  0  0  0  0  0  0  0
   -7.8761   -2.4946    0.0000 H   0  0  0  0  0  0  0  0  0  0  0  0
   -7.6061   -1.0914    0.0000 C   0  0  0  0  0  0  0  0  0  0  0  0
   -8.4162   -0.9355    0.0000 F   0  0  0  0  0  0  0  0  0  0  0  0
   -7.0660   -0.4677    0.0000 C   0  0  0  0  0  0  0  0  0  0  0  0
   -7.3360    0.3118    0.0000 H   0  0  0  0  0  0  0  0  0  0  0  0
   -5.6072    0.8178    0.0000 H   0  0  0  0  0  0  0  0  0  0  0  0
   -6.3070    0.5754    0.0000 H   0  0  0  0  0  0  0  0  0  0  0  0
   -5.0142   -0.9737    0.0000 H   0  0  0  0  0  0  0  0  0  0  0  0
   -4.3145   -0.7313    0.0000 H   0  0  0  0  0  0  0  0  0  0  0  0
   -4.6356    1.2473    0.0000 H   0  0  0  0  0  0  0  0  0  0  0  0
   -3.0153    0.9355    0.0000 C   0  0  0  0  0  0  0  0  0  0  0  0
   -3.2854    1.7150    0.0000 C   0  0  0  0  0  0  0  0  0  0  0  0
   -4.0955    1.8709    0.0000 C   0  0  0  0  0  0  0  0  0  0  0  0
   -4.9056    2.0268    0.0000 H   0  0  0  0  0  0  0  0  0  0  0  0
   -4.3655    2.6505    0.0000 C   0  0  0  0  0  0  0  0  0  0  0  0
   -4.9892    3.1906    0.0000 H   0  0  0  0  0  0  0  0  0  0  0  0
   -3.8255    3.2741    0.0000 C   0  0  0  0  0  0  0  0  0  0  0  0
   -4.0955    4.0537    0.0000 H   0  0  0  0  0  0  0  0  0  0  0  0
   -3.0153    3.1182    0.0000 N   0  0  0  0  0  0  0  0  0  0  0  0
   -2.7453    2.3387    0.0000 C   0  0  0  0  0  0  0  0  0  0  0  0
   -1.9351    2.1827    0.0000 H   0  0  0  0  0  0  0  0  0  0  0  0
   -2.2052    0.7796    0.0000 N   0  0  0  0  0  0  0  0  0  0  0  0
   -1.6651    1.4032    0.0000 C   0  0  0  0  0  0  0  0  0  0  0  0
   -0.8550    1.2473    0.0000 C   0  0  0  0  0  0  0  0  0  0  0  0
   -0.5849    0.4677    0.0000 C   0  0  0  0  0  0  0  0  0  0  0  0
   -1.1250   -0.1559    0.0000 O   0  0  0  0  0  0  0  0  0  0  0  0
   -0.4483   -0.6279    0.0000 H   0  0  0  0  0  0  0  0  0  0  0  0
    0.2252    0.3118    0.0000 C   0  0  0  0  0  0  0  0  0  0  0  0
    0.4953   -0.4677    0.0000 H   0  0  0  0  0  0  0  0  0  0  0  0
    0.7653    0.9355    0.0000 C   0  0  0  0  0  0  0  0  0  0  0  0
    1.5754    0.7796    0.0000 H   0  0  0  0  0  0  0  0  0  0  0  0
    0.4953    1.7150    0.0000 C   0  0  0  0  0  0  0  0  0  0  0  0
   -0.3149    1.8709    0.0000 C   0  0  0  0  0  0  0  0  0  0  0  0
   -0.5849    2.6505    0.0000 C   0  0  0  0  0  0  0  0  0  0  0  0
   -0.0448    3.2741    0.0000 C   0  0  0  0  0  0  0  0  0  0  0  0
    0.7653    3.1182    0.0000 C   0  0  0  0  0  0  0  0  0  0  0  0
    1.0353    2.3387    0.0000 C   0  0  0  0  0  0  0  0  0  0  0  0
    1.6893    1.8357    0.0000 H   0  0  0  0  0  0  0  0  0  0  0  0
    1.8293    2.5629    0.0000 H   0  0  0  0  0  0  0  0  0  0  0  0
    1.5900    3.1388    0.0000 H   0  0  0  0  0  0  0  0  0  0  0  0
    1.3711    3.6783    0.0000 H   0  0  0  0  0  0  0  0  0  0  0  0
    0.3545    3.9960    0.0000 H   0  0  0  0  0  0  0  0  0  0  0  0
   -0.2186    4.0806    0.0000 H   0  0  0  0  0  0  0  0  0  0  0  0
   -0.9862    3.3713    0.0000 H   0  0  0  0  0  0  0  0  0  0  0  0
   -1.3557    2.9447    0.0000 H   0  0  0  0  0  0  0  0  0  0  0  0
   -2.4752    1.5591    0.0000 H   0  0  0  0  0  0  0  0  0  0  0  0
   -1.1250    2.0268    0.0000 H   0  0  0  0  0  0  0  0  0  0  0  0
   -1.9351   -0.0000    0.0000 C   0  0  0  0  0  0  0  0  0  0  0  0
   -1.3714   -0.6023    0.0000 O   0  0  0  0  0  0  0  0  0  0  0  0
   -2.4752   -0.6236    0.0000 C   0  0  0  0  0  0  0  0  0  0  0  0
   -2.2882   -1.4271    0.0000 C   0  0  0  0  0  0  0  0  0  0  0  0
   -1.5281   -1.7481    0.0000 H   0  0  0  0  0  0  0  0  0  0  0  0
   -2.9945   -1.8534    0.0000 C   0  0  0  0  0  0  0  0  0  0  0  0
   -3.0649   -2.6754    0.0000 H   0  0  0  0  0  0  0  0  0  0  0  0
   -3.6182   -1.3133    0.0000 C   0  0  0  0  0  0  0  0  0  0  0  0
   -4.1528   -1.9416    0.0000 H   0  0  0  0  0  0  0  0  0  0  0  0
   -3.2972   -0.5533    0.0000 O   0  0  0  0  0  0  0  0  0  0  0  0
   -3.8255    1.0914    0.0000 H   0  0  0  0  0  0  0  0  0  0  0  0
  1  2  2  0  0  0  0
  2  3  1  0  0  0  0
  3  4  1  0  0  0  0
  4  5  1  0  0  0  0
  5  6  1  0  0  0  0
  6  7  2  0  0  0  0
  7  8  1  0  0  0  0
  7  9  1  0  0  0  0
  9 10  1  0  0  0  0
  9 11  2  0  0  0  0
 11 12  1  0  0  0  0
 11 13  1  0  0  0  0
 13 14  1  0  0  0  0
 13 15  2  0  0  0  0
  6 15  1  0  0  0  0
 15 16  1  0  0  0  0
  5 17  1  0  0  0  0
  5 18  1  0  0  0  0
  4 19  1  0  0  0  0
  4 20  1  0  0  0  0
  3 21  1  0  0  0  0
  2 22  1  0  0  0  0
 22 23  1  0  0  0  0
 23 24  2  0  0  0  0
 24 25  1  0  0  0  0
 24 26  1  0  0  0  0
 26 27  1  0  0  0  0
 26 28  2  0  0  0  0
 28 29  1  0  0  0  0
 28 30  1  0  0  0  0
 30 31  2  0  0  0  0
 23 31  1  0  0  0  0
 31 32  1  0  0  0  0
 22 33  1  0  0  0  0
 33 34  1  0  0  0  0
 34 35  1  0  0  0  0
 35 36  2  0  0  0  0
 36 37  1  0  0  0  0
 37 38  1  0  0  0  0
 36 39  1  0  0  0  0
 39 40  1  0  0  0  0
 39 41  2  0  0  0  0
 41 42  1  0  0  0  0
 41 43  1  0  0  0  0
 43 44  2  0  0  0  0
 35 44  1  0  0  0  0
 44 45  1  0  0  0  0
 45 46  1  0  0  0  0
 46 47  1  0  0  0  0
 47 48  1  0  0  0  0
 43 48  1  0  0  0  0
 48 49  1  0  0  0  0
 48 50  1  0  0  0  0
 47 51  1  0  0  0  0
 47 52  1  0  0  0  0
 46 53  1  0  0  0  0
 46 54  1  0  0  0  0
 45 55  1  0  0  0  0
 45 56  1  0  0  0  0
 34 57  1  0  0  0  0
 34 58  1  0  0  0  0
 33 59  1  0  0  0  0
 59 60  2  0  0  0  0
 59 61  1  0  0  0  0
 61 62  2  0  0  0  0
 62 63  1  0  0  0  0
 62 64  1  0  0  0  0
 64 65  1  0  0  0  0
 64 66  2  0  0  0  0
 66 67  1  0  0  0  0
 66 68  1  0  0  0  0
 61 68  1  0  0  0  0
 22 69  1  0  0  0  0
M  END
> <Potency>
12.0753434624764

> <pIC50>
4.918100507637579

> <Outcome>
Inactive

> <is_active>
0

$$$$

  Mrv1921 08232120312D          

 63 66  0  0  0  0            999 V2000
   -3.7789   -2.3375    0.0000 C   0  0  0  0  0  0  0  0  0  0  0  0
   -3.4988   -1.5615    0.0000 S   0  0  0  0  0  0  0  0  0  0  0  0
   -2.6868   -1.4160    0.0000 C   0  0  0  0  0  0  0  0  0  0  0  0
   -2.4067   -0.6400    0.0000 C   0  0  0  0  0  0  0  0  0  0  0  0
   -2.9388   -0.0095    0.0000 H   0  0  0  0  0  0  0  0  0  0  0  0
   -1.5947   -0.4945    0.0000 C   0  0  0  0  0  0  0  0  0  0  0  0
   -1.3146    0.2815    0.0000 H   0  0  0  0  0  0  0  0  0  0  0  0
   -1.0626   -1.1250    0.0000 C   0  0  0  0  0  0  0  0  0  0  0  0
   -0.2506   -0.9795    0.0000 C   0  0  0  0  0  0  0  0  0  0  0  0
    0.2815   -1.6100    0.0000 N   0  0  0  0  0  0  0  0  0  0  0  0
    0.2549   -2.4346    0.0000 C   0  0  0  0  0  0  0  0  0  0  0  0
    0.9558   -2.8699    0.0000 O   0  0  0  0  0  0  0  0  0  0  0  0
   -0.4724   -2.8239    0.0000 C   0  0  0  0  0  0  0  0  0  0  0  0
   -0.5850   -3.6412    0.0000 C   0  0  0  0  0  0  0  0  0  0  0  0
    0.0100   -4.2127    0.0000 H   0  0  0  0  0  0  0  0  0  0  0  0
   -1.3971   -3.7867    0.0000 C   0  0  0  0  0  0  0  0  0  0  0  0
   -1.7567   -4.5292    0.0000 H   0  0  0  0  0  0  0  0  0  0  0  0
   -1.7864   -3.0593    0.0000 C   0  0  0  0  0  0  0  0  0  0  0  0
   -2.3271   -3.6824    0.0000 H   0  0  0  0  0  0  0  0  0  0  0  0
   -1.2149   -2.4643    0.0000 O   0  0  0  0  0  0  0  0  0  0  0  0
    1.0935   -1.4646    0.0000 C   0  0  0  0  0  0  0  0  0  0  0  0
    1.6256   -2.0951    0.0000 C   0  0  0  0  0  0  0  0  0  0  0  0
    1.3455   -2.8711    0.0000 O   0  0  0  0  0  0  0  0  0  0  0  0
    2.4376   -1.9496    0.0000 N   0  0  0  0  0  0  0  0  0  0  0  0
    2.9697   -2.5801    0.0000 C   0  0  0  0  0  0  0  0  0  0  0  0
    3.7817   -2.4346    0.0000 C   0  0  0  0  0  0  0  0  0  0  0  0
    4.3138   -3.0651    0.0000 C   0  0  0  0  0  0  0  0  0  0  0  0
    5.1258   -2.9197    0.0000 C   0  0  0  0  0  0  0  0  0  0  0  0
    5.4059   -2.1436    0.0000 H   0  0  0  0  0  0  0  0  0  0  0  0
    5.6579   -3.5502    0.0000 C   0  0  0  0  0  0  0  0  0  0  0  0
    6.4700   -3.4047    0.0000 H   0  0  0  0  0  0  0  0  0  0  0  0
    5.3778   -4.3262    0.0000 C   0  0  0  0  0  0  0  0  0  0  0  0
    5.9099   -4.9567    0.0000 H   0  0  0  0  0  0  0  0  0  0  0  0
    4.5658   -4.4717    0.0000 C   0  0  0  0  0  0  0  0  0  0  0  0
    4.2857   -5.2477    0.0000 F   0  0  0  0  0  0  0  0  0  0  0  0
    4.0337   -3.8412    0.0000 C   0  0  0  0  0  0  0  0  0  0  0  0
    3.2217   -3.9867    0.0000 H   0  0  0  0  0  0  0  0  0  0  0  0
    4.3803   -1.8668    0.0000 H   0  0  0  0  0  0  0  0  0  0  0  0
    3.6837   -1.6155    0.0000 H   0  0  0  0  0  0  0  0  0  0  0  0
    2.3711   -3.1479    0.0000 H   0  0  0  0  0  0  0  0  0  0  0  0
    3.0677   -3.3993    0.0000 H   0  0  0  0  0  0  0  0  0  0  0  0
    2.7177   -1.1736    0.0000 H   0  0  0  0  0  0  0  0  0  0  0  0
    1.3736   -0.6885    0.0000 C   0  0  0  0  0  0  0  0  0  0  0  0
    0.8415   -0.0580    0.0000 C   0  0  0  0  0  0  0  0  0  0  0  0
    0.1836    0.4397    0.0000 H   0  0  0  0  0  0  0  0  0  0  0  0
    1.1216    0.7180    0.0000 C   0  0  0  0  0  0  0  0  0  0  0  0
    0.5895    1.3485    0.0000 H   0  0  0  0  0  0  0  0  0  0  0  0
    1.9336    0.8635    0.0000 C   0  0  0  0  0  0  0  0  0  0  0  0
    2.2137    1.6395    0.0000 H   0  0  0  0  0  0  0  0  0  0  0  0
    2.4657    0.2330    0.0000 N   0  0  0  0  0  0  0  0  0  0  0  0
    2.1856   -0.5430    0.0000 C   0  0  0  0  0  0  0  0  0  0  0  0
    1.9056   -1.3191    0.0000 H   0  0  0  0  0  0  0  0  0  0  0  0
    0.8135   -2.2406    0.0000 H   0  0  0  0  0  0  0  0  0  0  0  0
    0.3480   -0.4117    0.0000 H   0  0  0  0  0  0  0  0  0  0  0  0
   -0.3486   -0.1604    0.0000 H   0  0  0  0  0  0  0  0  0  0  0  0
   -1.3427   -1.9010    0.0000 C   0  0  0  0  0  0  0  0  0  0  0  0
   -0.5192   -1.9519    0.0000 H   0  0  0  0  0  0  0  0  0  0  0  0
   -2.1547   -2.0465    0.0000 C   0  0  0  0  0  0  0  0  0  0  0  0
   -2.4348   -2.8225    0.0000 C   0  0  0  0  0  0  0  0  0  0  0  0
   -2.7148   -3.5986    0.0000 N   0  0  0  0  0  0  0  0  0  0  0  0
   -4.5549   -2.0575    0.0000 H   0  0  0  0  0  0  0  0  0  0  0  0
   -4.0589   -3.1135    0.0000 H   0  0  0  0  0  0  0  0  0  0  0  0
   -3.0029   -2.6175    0.0000 H   0  0  0  0  0  0  0  0  0  0  0  0
  1  2  1  0  0  0  0
  2  3  1  0  0  0  0
  3  4  2  0  0  0  0
  4  5  1  0  0  0  0
  4  6  1  0  0  0  0
  6  7  1  0  0  0  0
  6  8  2  0  0  0  0
  8  9  1  0  0  0  0
  9 10  1  0  0  0  0
 10 11  1  0  0  0  0
 11 12  2  0  0  0  0
 11 13  1  0  0  0  0
 13 14  2  0  0  0  0
 14 15  1  0  0  0  0
 14 16  1  0  0  0  0
 16 17  1  0  0  0  0
 16 18  2  0  0  0  0
 18 19  1  0  0  0  0
 18 20  1  0  0  0  0
 13 20  1  0  0  0  0
 10 21  1  0  0  0  0
 21 22  1  0  0  0  0
 22 23  2  0  0  0  0
 22 24  1  0  0  0  0
 24 25  1  0  0  0  0
 25 26  1  0  0  0  0
 26 27  1  0  0  0  0
 27 28  2  0  0  0  0
 28 29  1  0  0  0  0
 28 30  1  0  0  0  0
 30 31  1  0  0  0  0
 30 32  2  0  0  0  0
 32 33  1  0  0  0  0
 32 34  1  0  0  0  0
 34 35  1  0  0  0  0
 34 36  2  0  0  0  0
 27 36  1  0  0  0  0
 36 37  1  0  0  0  0
 26 38  1  0  0  0  0
 26 39  1  0  0  0  0
 25 40  1  0  0  0  0
 25 41  1  0  0  0  0
 24 42  1  0  0  0  0
 21 43  1  0  0  0  0
 43 44  2  0  0  0  0
 44 45  1  0  0  0  0
 44 46  1  0  0  0  0
 46 47  1  0  0  0  0
 46 48  2  0  0  0  0
 48 49  1  0  0  0  0
 48 50  1  0  0  0  0
 50 51  2  0  0  0  0
 43 51  1  0  0  0  0
 51 52  1  0  0  0  0
 21 53  1  0  0  0  0
  9 54  1  0  0  0  0
  9 55  1  0  0  0  0
  8 56  1  0  0  0  0
 56 57  1  0  0  0  0
 56 58  2  0  0  0  0
  3 58  1  0  0  0  0
 58 59  1  0  0  0  0
 59 60  3  0  0  0  0
  1 61  1  0  0  0  0
  1 62  1  0  0  0  0
  1 63  1  0  0  0  0
M  END
> <Potency>
54.89068116021

> <pIC50>
4.260501379852653

> <Outcome>
Inactive

> <is_active>
0

$$$$

  Mrv1921 08232120312D          

 59 62  0  0  0  0            999 V2000
   -2.7004    0.6432    0.0000 C   0  0  0  0  0  0  0  0  0  0  0  0
   -1.8903    0.7991    0.0000 O   0  0  0  0  0  0  0  0  0  0  0  0
   -1.3502    0.1755    0.0000 C   0  0  0  0  0  0  0  0  0  0  0  0
   -0.5401    0.3314    0.0000 C   0  0  0  0  0  0  0  0  0  0  0  0
   -0.2700    1.1109    0.0000 H   0  0  0  0  0  0  0  0  0  0  0  0
    0.0000   -0.2923    0.0000 C   0  0  0  0  0  0  0  0  0  0  0  0
    0.5401   -0.9159    0.0000 H   0  0  0  0  0  0  0  0  0  0  0  0
   -0.2700   -1.0718    0.0000 C   0  0  0  0  0  0  0  0  0  0  0  0
    0.2700   -1.6954    0.0000 N   0  0  0  0  0  0  0  0  0  0  0  0
    0.0000   -2.4750    0.0000 C   0  0  0  0  0  0  0  0  0  0  0  0
    0.5401   -3.0986    0.0000 O   0  0  0  0  0  0  0  0  0  0  0  0
   -0.8101   -2.6309    0.0000 C   0  0  0  0  0  0  0  0  0  0  0  0
   -1.1602   -3.3780    0.0000 C   0  0  0  0  0  0  0  0  0  0  0  0
   -0.7616   -4.1003    0.0000 H   0  0  0  0  0  0  0  0  0  0  0  0
   -1.9788   -3.2759    0.0000 C   0  0  0  0  0  0  0  0  0  0  0  0
   -2.5426   -3.8782    0.0000 H   0  0  0  0  0  0  0  0  0  0  0  0
   -2.1348   -2.4658    0.0000 C   0  0  0  0  0  0  0  0  0  0  0  0
   -2.8818   -2.1157    0.0000 H   0  0  0  0  0  0  0  0  0  0  0  0
   -1.4125   -2.0671    0.0000 O   0  0  0  0  0  0  0  0  0  0  0  0
    1.0802   -1.5395    0.0000 C   0  0  0  0  0  0  0  0  0  0  0  0
    1.6203   -2.1632    0.0000 C   0  0  0  0  0  0  0  0  0  0  0  0
    1.3502   -2.9427    0.0000 O   0  0  0  0  0  0  0  0  0  0  0  0
    2.4304   -2.0073    0.0000 N   0  0  0  0  0  0  0  0  0  0  0  0
    2.9705   -2.6309    0.0000 C   0  0  0  0  0  0  0  0  0  0  0  0
    3.7806   -2.4750    0.0000 C   0  0  0  0  0  0  0  0  0  0  0  0
    4.3207   -3.0986    0.0000 C   0  0  0  0  0  0  0  0  0  0  0  0
    5.1308   -2.9427    0.0000 C   0  0  0  0  0  0  0  0  0  0  0  0
    5.4009   -2.1632    0.0000 H   0  0  0  0  0  0  0  0  0  0  0  0
    5.6709   -3.5664    0.0000 C   0  0  0  0  0  0  0  0  0  0  0  0
    6.4811   -3.4105    0.0000 H   0  0  0  0  0  0  0  0  0  0  0  0
    5.4009   -4.3459    0.0000 C   0  0  0  0  0  0  0  0  0  0  0  0
    5.9410   -4.9696    0.0000 H   0  0  0  0  0  0  0  0  0  0  0  0
    4.5908   -4.5018    0.0000 C   0  0  0  0  0  0  0  0  0  0  0  0
    4.3207   -5.2814    0.0000 F   0  0  0  0  0  0  0  0  0  0  0  0
    4.0507   -3.8782    0.0000 C   0  0  0  0  0  0  0  0  0  0  0  0
    3.2405   -4.0341    0.0000 H   0  0  0  0  0  0  0  0  0  0  0  0
    4.3718   -1.8996    0.0000 H   0  0  0  0  0  0  0  0  0  0  0  0
    3.6721   -1.6572    0.0000 H   0  0  0  0  0  0  0  0  0  0  0  0
    2.3793   -3.2063    0.0000 H   0  0  0  0  0  0  0  0  0  0  0  0
    3.0790   -3.4487    0.0000 H   0  0  0  0  0  0  0  0  0  0  0  0
    2.7004   -1.2277    0.0000 H   0  0  0  0  0  0  0  0  0  0  0  0
    1.3502   -0.7600    0.0000 C   0  0  0  0  0  0  0  0  0  0  0  0
    0.8101   -0.1363    0.0000 C   0  0  0  0  0  0  0  0  0  0  0  0
    0.2700    0.4873    0.0000 H   0  0  0  0  0  0  0  0  0  0  0  0
    1.0802    0.6432    0.0000 C   0  0  0  0  0  0  0  0  0  0  0  0
    0.9243    1.4533    0.0000 H   0  0  0  0  0  0  0  0  0  0  0  0
    1.8903    0.7991    0.0000 C   0  0  0  0  0  0  0  0  0  0  0  0
    2.1604    1.5787    0.0000 H   0  0  0  0  0  0  0  0  0  0  0  0
    2.4304    0.1755    0.0000 N   0  0  0  0  0  0  0  0  0  0  0  0
    2.1604   -0.6041    0.0000 C   0  0  0  0  0  0  0  0  0  0  0  0
    1.8903   -1.3836    0.0000 H   0  0  0  0  0  0  0  0  0  0  0  0
    0.8101   -2.3191    0.0000 H   0  0  0  0  0  0  0  0  0  0  0  0
   -1.0802   -1.2277    0.0000 C   0  0  0  0  0  0  0  0  0  0  0  0
   -1.8935   -1.3660    0.0000 H   0  0  0  0  0  0  0  0  0  0  0  0
   -1.6203   -0.6041    0.0000 C   0  0  0  0  0  0  0  0  0  0  0  0
   -2.3983   -0.3298    0.0000 H   0  0  0  0  0  0  0  0  0  0  0  0
   -2.8564    1.4533    0.0000 H   0  0  0  0  0  0  0  0  0  0  0  0
   -3.5106    0.4873    0.0000 H   0  0  0  0  0  0  0  0  0  0  0  0
   -2.5445   -0.1669    0.0000 H   0  0  0  0  0  0  0  0  0  0  0  0
  1  2  1  0  0  0  0
  2  3  1  0  0  0  0
  3  4  2  0  0  0  0
  4  5  1  0  0  0  0
  4  6  1  0  0  0  0
  6  7  1  0  0  0  0
  6  8  2  0  0  0  0
  8  9  1  0  0  0  0
  9 10  1  0  0  0  0
 10 11  2  0  0  0  0
 10 12  1  0  0  0  0
 12 13  2  0  0  0  0
 13 14  1  0  0  0  0
 13 15  1  0  0  0  0
 15 16  1  0  0  0  0
 15 17  2  0  0  0  0
 17 18  1  0  0  0  0
 17 19  1  0  0  0  0
 12 19  1  0  0  0  0
  9 20  1  0  0  0  0
 20 21  1  0  0  0  0
 21 22  2  0  0  0  0
 21 23  1  0  0  0  0
 23 24  1  0  0  0  0
 24 25  1  0  0  0  0
 25 26  1  0  0  0  0
 26 27  2  0  0  0  0
 27 28  1  0  0  0  0
 27 29  1  0  0  0  0
 29 30  1  0  0  0  0
 29 31  2  0  0  0  0
 31 32  1  0  0  0  0
 31 33  1  0  0  0  0
 33 34  1  0  0  0  0
 33 35  2  0  0  0  0
 26 35  1  0  0  0  0
 35 36  1  0  0  0  0
 25 37  1  0  0  0  0
 25 38  1  0  0  0  0
 24 39  1  0  0  0  0
 24 40  1  0  0  0  0
 23 41  1  0  0  0  0
 20 42  1  0  0  0  0
 42 43  2  0  0  0  0
 43 44  1  0  0  0  0
 43 45  1  0  0  0  0
 45 46  1  0  0  0  0
 45 47  2  0  0  0  0
 47 48  1  0  0  0  0
 47 49  1  0  0  0  0
 49 50  2  0  0  0  0
 42 50  1  0  0  0  0
 50 51  1  0  0  0  0
 20 52  1  0  0  0  0
  8 53  1  0  0  0  0
 53 54  1  0  0  0  0
 53 55  2  0  0  0  0
  3 55  1  0  0  0  0
 55 56  1  0  0  0  0
  1 57  1  0  0  0  0
  1 58  1  0  0  0  0
  1 59  1  0  0  0  0
M  END
> <Potency>
30.4976776389087

> <pIC50>
4.5157332303911595

> <Outcome>
Inactive

> <is_active>
0

$$$$

  Mrv1921 08232120312D          

 60 63  0  0  0  0            999 V2000
   -2.7004    0.6432    0.0000 C   0  0  0  0  0  0  0  0  0  0  0  0
   -1.8903    0.7991    0.0000 C   0  0  0  0  0  0  0  0  0  0  0  0
   -1.6203    1.5787    0.0000 O   0  0  0  0  0  0  0  0  0  0  0  0
   -1.3502    0.1755    0.0000 C   0  0  0  0  0  0  0  0  0  0  0  0
   -0.5401    0.3314    0.0000 C   0  0  0  0  0  0  0  0  0  0  0  0
   -0.2700    1.1109    0.0000 H   0  0  0  0  0  0  0  0  0  0  0  0
    0.0000   -0.2923    0.0000 C   0  0  0  0  0  0  0  0  0  0  0  0
    0.5401   -0.9159    0.0000 H   0  0  0  0  0  0  0  0  0  0  0  0
   -0.2700   -1.0718    0.0000 C   0  0  0  0  0  0  0  0  0  0  0  0
    0.2700   -1.6954    0.0000 N   0  0  0  0  0  0  0  0  0  0  0  0
    0.0000   -2.4750    0.0000 C   0  0  0  0  0  0  0  0  0  0  0  0
    0.5401   -3.0986    0.0000 O   0  0  0  0  0  0  0  0  0  0  0  0
   -0.8101   -2.6309    0.0000 C   0  0  0  0  0  0  0  0  0  0  0  0
   -1.1602   -3.3780    0.0000 C   0  0  0  0  0  0  0  0  0  0  0  0
   -0.7616   -4.1003    0.0000 H   0  0  0  0  0  0  0  0  0  0  0  0
   -1.9788   -3.2759    0.0000 C   0  0  0  0  0  0  0  0  0  0  0  0
   -2.5426   -3.8782    0.0000 H   0  0  0  0  0  0  0  0  0  0  0  0
   -2.1348   -2.4658    0.0000 C   0  0  0  0  0  0  0  0  0  0  0  0
   -2.8818   -2.1157    0.0000 H   0  0  0  0  0  0  0  0  0  0  0  0
   -1.4125   -2.0671    0.0000 O   0  0  0  0  0  0  0  0  0  0  0  0
    1.0802   -1.5395    0.0000 C   0  0  0  0  0  0  0  0  0  0  0  0
    1.6203   -2.1632    0.0000 C   0  0  0  0  0  0  0  0  0  0  0  0
    1.3502   -2.9427    0.0000 O   0  0  0  0  0  0  0  0  0  0  0  0
    2.4304   -2.0073    0.0000 N   0  0  0  0  0  0  0  0  0  0  0  0
    2.9705   -2.6309    0.0000 C   0  0  0  0  0  0  0  0  0  0  0  0
    3.7806   -2.4750    0.0000 C   0  0  0  0  0  0  0  0  0  0  0  0
    4.3207   -3.0986    0.0000 C   0  0  0  0  0  0  0  0  0  0  0  0
    5.1308   -2.9427    0.0000 C   0  0  0  0  0  0  0  0  0  0  0  0
    5.4009   -2.1632    0.0000 H   0  0  0  0  0  0  0  0  0  0  0  0
    5.6709   -3.5664    0.0000 C   0  0  0  0  0  0  0  0  0  0  0  0
    6.4811   -3.4105    0.0000 H   0  0  0  0  0  0  0  0  0  0  0  0
    5.4009   -4.3459    0.0000 C   0  0  0  0  0  0  0  0  0  0  0  0
    5.9410   -4.9696    0.0000 H   0  0  0  0  0  0  0  0  0  0  0  0
    4.5908   -4.5018    0.0000 C   0  0  0  0  0  0  0  0  0  0  0  0
    4.3207   -5.2814    0.0000 F   0  0  0  0  0  0  0  0  0  0  0  0
    4.0507   -3.8782    0.0000 C   0  0  0  0  0  0  0  0  0  0  0  0
    3.2405   -4.0341    0.0000 H   0  0  0  0  0  0  0  0  0  0  0  0
    4.3718   -1.8996    0.0000 H   0  0  0  0  0  0  0  0  0  0  0  0
    3.6721   -1.6572    0.0000 H   0  0  0  0  0  0  0  0  0  0  0  0
    2.3793   -3.2063    0.0000 H   0  0  0  0  0  0  0  0  0  0  0  0
    3.0790   -3.4487    0.0000 H   0  0  0  0  0  0  0  0  0  0  0  0
    2.7004   -1.2277    0.0000 H   0  0  0  0  0  0  0  0  0  0  0  0
    1.3502   -0.7600    0.0000 C   0  0  0  0  0  0  0  0  0  0  0  0
    0.8101   -0.1363    0.0000 C   0  0  0  0  0  0  0  0  0  0  0  0
    0.2700    0.4873    0.0000 H   0  0  0  0  0  0  0  0  0  0  0  0
    1.0802    0.6432    0.0000 C   0  0  0  0  0  0  0  0  0  0  0  0
    0.9243    1.4533    0.0000 H   0  0  0  0  0  0  0  0  0  0  0  0
    1.8903    0.7991    0.0000 C   0  0  0  0  0  0  0  0  0  0  0  0
    2.1604    1.5787    0.0000 H   0  0  0  0  0  0  0  0  0  0  0  0
    2.4304    0.1755    0.0000 N   0  0  0  0  0  0  0  0  0  0  0  0
    2.1604   -0.6041    0.0000 C   0  0  0  0  0  0  0  0  0  0  0  0
    1.8903   -1.3836    0.0000 H   0  0  0  0  0  0  0  0  0  0  0  0
    0.8101   -2.3191    0.0000 H   0  0  0  0  0  0  0  0  0  0  0  0
   -1.0802   -1.2277    0.0000 C   0  0  0  0  0  0  0  0  0  0  0  0
   -1.8935   -1.3660    0.0000 H   0  0  0  0  0  0  0  0  0  0  0  0
   -1.6203   -0.6041    0.0000 C   0  0  0  0  0  0  0  0  0  0  0  0
   -2.3983   -0.3298    0.0000 H   0  0  0  0  0  0  0  0  0  0  0  0
   -2.8564    1.4533    0.0000 H   0  0  0  0  0  0  0  0  0  0  0  0
   -3.5106    0.4873    0.0000 H   0  0  0  0  0  0  0  0  0  0  0  0
   -2.5445   -0.1669    0.0000 H   0  0  0  0  0  0  0  0  0  0  0  0
  1  2  1  0  0  0  0
  2  3  2  0  0  0  0
  2  4  1  0  0  0  0
  4  5  2  0  0  0  0
  5  6  1  0  0  0  0
  5  7  1  0  0  0  0
  7  8  1  0  0  0  0
  7  9  2  0  0  0  0
  9 10  1  0  0  0  0
 10 11  1  0  0  0  0
 11 12  2  0  0  0  0
 11 13  1  0  0  0  0
 13 14  2  0  0  0  0
 14 15  1  0  0  0  0
 14 16  1  0  0  0  0
 16 17  1  0  0  0  0
 16 18  2  0  0  0  0
 18 19  1  0  0  0  0
 18 20  1  0  0  0  0
 13 20  1  0  0  0  0
 10 21  1  0  0  0  0
 21 22  1  0  0  0  0
 22 23  2  0  0  0  0
 22 24  1  0  0  0  0
 24 25  1  0  0  0  0
 25 26  1  0  0  0  0
 26 27  1  0  0  0  0
 27 28  2  0  0  0  0
 28 29  1  0  0  0  0
 28 30  1  0  0  0  0
 30 31  1  0  0  0  0
 30 32  2  0  0  0  0
 32 33  1  0  0  0  0
 32 34  1  0  0  0  0
 34 35  1  0  0  0  0
 34 36  2  0  0  0  0
 27 36  1  0  0  0  0
 36 37  1  0  0  0  0
 26 38  1  0  0  0  0
 26 39  1  0  0  0  0
 25 40  1  0  0  0  0
 25 41  1  0  0  0  0
 24 42  1  0  0  0  0
 21 43  1  0  0  0  0
 43 44  2  0  0  0  0
 44 45  1  0  0  0  0
 44 46  1  0  0  0  0
 46 47  1  0  0  0  0
 46 48  2  0  0  0  0
 48 49  1  0  0  0  0
 48 50  1  0  0  0  0
 50 51  2  0  0  0  0
 43 51  1  0  0  0  0
 51 52  1  0  0  0  0
 21 53  1  0  0  0  0
  9 54  1  0  0  0  0
 54 55  1  0  0  0  0
 54 56  2  0  0  0  0
  4 56  1  0  0  0  0
 56 57  1  0  0  0  0
  1 58  1  0  0  0  0
  1 59  1  0  0  0  0
  1 60  1  0  0  0  0
M  END
> <Potency>
56.2819512358489

> <pIC50>
4.249630854444959

> <Outcome>
Inactive

> <is_active>
0

$$$$

  Mrv1921 08232120312D          

 56 59  0  0  0  0            999 V2000
   -2.4304    1.4228    0.0000 N   0  0  0  0  0  0  0  0  0  0  0  0
   -1.8903    0.7991    0.0000 C   0  0  0  0  0  0  0  0  0  0  0  0
   -1.3502    0.1755    0.0000 C   0  0  0  0  0  0  0  0  0  0  0  0
   -0.5401    0.3314    0.0000 C   0  0  0  0  0  0  0  0  0  0  0  0
   -0.2700    1.1109    0.0000 H   0  0  0  0  0  0  0  0  0  0  0  0
    0.0000   -0.2923    0.0000 C   0  0  0  0  0  0  0  0  0  0  0  0
    0.5401   -0.9159    0.0000 H   0  0  0  0  0  0  0  0  0  0  0  0
   -0.2700   -1.0718    0.0000 C   0  0  0  0  0  0  0  0  0  0  0  0
    0.2700   -1.6954    0.0000 N   0  0  0  0  0  0  0  0  0  0  0  0
    0.0000   -2.4750    0.0000 C   0  0  0  0  0  0  0  0  0  0  0  0
    0.5401   -3.0986    0.0000 O   0  0  0  0  0  0  0  0  0  0  0  0
   -0.8101   -2.6309    0.0000 C   0  0  0  0  0  0  0  0  0  0  0  0
   -1.1602   -3.3780    0.0000 C   0  0  0  0  0  0  0  0  0  0  0  0
   -0.7616   -4.1003    0.0000 H   0  0  0  0  0  0  0  0  0  0  0  0
   -1.9788   -3.2759    0.0000 C   0  0  0  0  0  0  0  0  0  0  0  0
   -2.5426   -3.8782    0.0000 H   0  0  0  0  0  0  0  0  0  0  0  0
   -2.1348   -2.4658    0.0000 C   0  0  0  0  0  0  0  0  0  0  0  0
   -2.8818   -2.1157    0.0000 H   0  0  0  0  0  0  0  0  0  0  0  0
   -1.4125   -2.0671    0.0000 O   0  0  0  0  0  0  0  0  0  0  0  0
    1.0802   -1.5395    0.0000 C   0  0  0  0  0  0  0  0  0  0  0  0
    1.6203   -2.1632    0.0000 C   0  0  0  0  0  0  0  0  0  0  0  0
    1.3502   -2.9427    0.0000 O   0  0  0  0  0  0  0  0  0  0  0  0
    2.4304   -2.0073    0.0000 N   0  0  0  0  0  0  0  0  0  0  0  0
    2.9705   -2.6309    0.0000 C   0  0  0  0  0  0  0  0  0  0  0  0
    3.7806   -2.4750    0.0000 C   0  0  0  0  0  0  0  0  0  0  0  0
    4.3207   -3.0986    0.0000 C   0  0  0  0  0  0  0  0  0  0  0  0
    5.1308   -2.9427    0.0000 C   0  0  0  0  0  0  0  0  0  0  0  0
    5.4009   -2.1632    0.0000 H   0  0  0  0  0  0  0  0  0  0  0  0
    5.6709   -3.5664    0.0000 C   0  0  0  0  0  0  0  0  0  0  0  0
    6.4811   -3.4105    0.0000 H   0  0  0  0  0  0  0  0  0  0  0  0
    5.4009   -4.3459    0.0000 C   0  0  0  0  0  0  0  0  0  0  0  0
    5.9410   -4.9696    0.0000 H   0  0  0  0  0  0  0  0  0  0  0  0
    4.5908   -4.5018    0.0000 C   0  0  0  0  0  0  0  0  0  0  0  0
    4.3207   -5.2814    0.0000 F   0  0  0  0  0  0  0  0  0  0  0  0
    4.0507   -3.8782    0.0000 C   0  0  0  0  0  0  0  0  0  0  0  0
    3.2405   -4.0341    0.0000 H   0  0  0  0  0  0  0  0  0  0  0  0
    4.3718   -1.8996    0.0000 H   0  0  0  0  0  0  0  0  0  0  0  0
    3.6721   -1.6572    0.0000 H   0  0  0  0  0  0  0  0  0  0  0  0
    2.3793   -3.2063    0.0000 H   0  0  0  0  0  0  0  0  0  0  0  0
    3.0790   -3.4487    0.0000 H   0  0  0  0  0  0  0  0  0  0  0  0
    2.7004   -1.2277    0.0000 H   0  0  0  0  0  0  0  0  0  0  0  0
    1.3502   -0.7600    0.0000 C   0  0  0  0  0  0  0  0  0  0  0  0
    0.8101   -0.1363    0.0000 C   0  0  0  0  0  0  0  0  0  0  0  0
    0.2700    0.4873    0.0000 H   0  0  0  0  0  0  0  0  0  0  0  0
    1.0802    0.6432    0.0000 C   0  0  0  0  0  0  0  0  0  0  0  0
    0.9243    1.4533    0.0000 H   0  0  0  0  0  0  0  0  0  0  0  0
    1.8903    0.7991    0.0000 C   0  0  0  0  0  0  0  0  0  0  0  0
    2.1604    1.5787    0.0000 H   0  0  0  0  0  0  0  0  0  0  0  0
    2.4304    0.1755    0.0000 N   0  0  0  0  0  0  0  0  0  0  0  0
    2.1604   -0.6041    0.0000 C   0  0  0  0  0  0  0  0  0  0  0  0
    1.8903   -1.3836    0.0000 H   0  0  0  0  0  0  0  0  0  0  0  0
    0.8101   -2.3191    0.0000 H   0  0  0  0  0  0  0  0  0  0  0  0
   -1.0802   -1.2277    0.0000 C   0  0  0  0  0  0  0  0  0  0  0  0
   -1.8935   -1.3660    0.0000 H   0  0  0  0  0  0  0  0  0  0  0  0
   -1.6203   -0.6041    0.0000 C   0  0  0  0  0  0  0  0  0  0  0  0
   -2.3983   -0.3298    0.0000 H   0  0  0  0  0  0  0  0  0  0  0  0
  1  2  3  0  0  0  0
  2  3  1  0  0  0  0
  3  4  2  0  0  0  0
  4  5  1  0  0  0  0
  4  6  1  0  0  0  0
  6  7  1  0  0  0  0
  6  8  2  0  0  0  0
  8  9  1  0  0  0  0
  9 10  1  0  0  0  0
 10 11  2  0  0  0  0
 10 12  1  0  0  0  0
 12 13  2  0  0  0  0
 13 14  1  0  0  0  0
 13 15  1  0  0  0  0
 15 16  1  0  0  0  0
 15 17  2  0  0  0  0
 17 18  1  0  0  0  0
 17 19  1  0  0  0  0
 12 19  1  0  0  0  0
  9 20  1  0  0  0  0
 20 21  1  0  0  0  0
 21 22  2  0  0  0  0
 21 23  1  0  0  0  0
 23 24  1  0  0  0  0
 24 25  1  0  0  0  0
 25 26  1  0  0  0  0
 26 27  2  0  0  0  0
 27 28  1  0  0  0  0
 27 29  1  0  0  0  0
 29 30  1  0  0  0  0
 29 31  2  0  0  0  0
 31 32  1  0  0  0  0
 31 33  1  0  0  0  0
 33 34  1  0  0  0  0
 33 35  2  0  0  0  0
 26 35  1  0  0  0  0
 35 36  1  0  0  0  0
 25 37  1  0  0  0  0
 25 38  1  0  0  0  0
 24 39  1  0  0  0  0
 24 40  1  0  0  0  0
 23 41  1  0  0  0  0
 20 42  1  0  0  0  0
 42 43  2  0  0  0  0
 43 44  1  0  0  0  0
 43 45  1  0  0  0  0
 45 46  1  0  0  0  0
 45 47  2  0  0  0  0
 47 48  1  0  0  0  0
 47 49  1  0  0  0  0
 49 50  2  0  0  0  0
 42 50  1  0  0  0  0
 50 51  1  0  0  0  0
 20 52  1  0  0  0  0
  8 53  1  0  0  0  0
 53 54  1  0  0  0  0
 53 55  2  0  0  0  0
  3 55  1  0  0  0  0
 55 56  1  0  0  0  0
M  END
> <Potency>
10.3951776243351

> <pIC50>
4.9831680853984555

> <Outcome>
Inactive

> <is_active>
0

$$$$

  Mrv1921 08232120312D          

 70 74  0  0  0  0            999 V2000
    5.2883   -6.1323    0.0000 O   0  0  0  0  0  0  0  0  0  0  0  0
    5.0182   -6.9118    0.0000 C   0  0  0  0  0  0  0  0  0  0  0  0
    4.2081   -7.0677    0.0000 N   0  0  0  0  0  0  0  0  0  0  0  0
    3.6680   -6.4441    0.0000 C   0  0  0  0  0  0  0  0  0  0  0  0
    2.8579   -6.6000    0.0000 C   0  0  0  0  0  0  0  0  0  0  0  0
    2.3178   -5.9764    0.0000 C   0  0  0  0  0  0  0  0  0  0  0  0
    1.5077   -6.1323    0.0000 C   0  0  0  0  0  0  0  0  0  0  0  0
    1.2376   -6.9118    0.0000 H   0  0  0  0  0  0  0  0  0  0  0  0
    0.9676   -5.5086    0.0000 C   0  0  0  0  0  0  0  0  0  0  0  0
    0.1574   -5.6645    0.0000 H   0  0  0  0  0  0  0  0  0  0  0  0
    1.2376   -4.7291    0.0000 C   0  0  0  0  0  0  0  0  0  0  0  0
    0.6975   -4.1054    0.0000 H   0  0  0  0  0  0  0  0  0  0  0  0
    2.0477   -4.5732    0.0000 C   0  0  0  0  0  0  0  0  0  0  0  0
    2.3178   -3.7936    0.0000 F   0  0  0  0  0  0  0  0  0  0  0  0
    2.5878   -5.1968    0.0000 C   0  0  0  0  0  0  0  0  0  0  0  0
    3.3980   -5.0409    0.0000 H   0  0  0  0  0  0  0  0  0  0  0  0
    2.2667   -7.1754    0.0000 H   0  0  0  0  0  0  0  0  0  0  0  0
    2.9664   -7.4178    0.0000 H   0  0  0  0  0  0  0  0  0  0  0  0
    4.2592   -5.8687    0.0000 H   0  0  0  0  0  0  0  0  0  0  0  0
    3.5595   -5.6263    0.0000 H   0  0  0  0  0  0  0  0  0  0  0  0
    3.9381   -7.8473    0.0000 H   0  0  0  0  0  0  0  0  0  0  0  0
    5.5583   -7.5355    0.0000 C   0  0  0  0  0  0  0  0  0  0  0  0
    5.2883   -8.3150    0.0000 C   0  0  0  0  0  0  0  0  0  0  0  0
    5.8284   -8.9387    0.0000 C   0  0  0  0  0  0  0  0  0  0  0  0
    6.0984   -8.1591    0.0000 H   0  0  0  0  0  0  0  0  0  0  0  0
    5.5583   -9.7182    0.0000 C   0  0  0  0  0  0  0  0  0  0  0  0
    6.0984  -10.3418    0.0000 H   0  0  0  0  0  0  0  0  0  0  0  0
    4.7482   -9.8741    0.0000 C   0  0  0  0  0  0  0  0  0  0  0  0
    4.4782  -10.6537    0.0000 H   0  0  0  0  0  0  0  0  0  0  0  0
    4.2081   -9.2505    0.0000 N   0  0  0  0  0  0  0  0  0  0  0  0
    4.4782   -8.4709    0.0000 C   0  0  0  0  0  0  0  0  0  0  0  0
    3.6680   -8.6268    0.0000 H   0  0  0  0  0  0  0  0  0  0  0  0
    6.3685   -7.3796    0.0000 N   0  0  0  0  0  0  0  0  0  0  0  0
    6.6385   -6.6000    0.0000 C   0  0  0  0  0  0  0  0  0  0  0  0
    6.0984   -5.9764    0.0000 O   0  0  0  0  0  0  0  0  0  0  0  0
    7.4486   -6.4441    0.0000 C   0  0  0  0  0  0  0  0  0  0  0  0
    7.7987   -5.6970    0.0000 C   0  0  0  0  0  0  0  0  0  0  0  0
    7.4001   -4.9747    0.0000 H   0  0  0  0  0  0  0  0  0  0  0  0
    8.6174   -5.7991    0.0000 C   0  0  0  0  0  0  0  0  0  0  0  0
    9.1811   -5.1968    0.0000 H   0  0  0  0  0  0  0  0  0  0  0  0
    8.7733   -6.6092    0.0000 C   0  0  0  0  0  0  0  0  0  0  0  0
    9.5203   -6.9593    0.0000 H   0  0  0  0  0  0  0  0  0  0  0  0
    8.0510   -7.0079    0.0000 O   0  0  0  0  0  0  0  0  0  0  0  0
    6.9086   -8.0032    0.0000 C   0  0  0  0  0  0  0  0  0  0  0  0
    7.7187   -7.8473    0.0000 C   0  0  0  0  0  0  0  0  0  0  0  0
    7.4486   -8.6268    0.0000 H   0  0  0  0  0  0  0  0  0  0  0  0
    8.5320   -7.7090    0.0000 H   0  0  0  0  0  0  0  0  0  0  0  0
    8.2588   -8.4709    0.0000 C   0  0  0  0  0  0  0  0  0  0  0  0
    8.7966   -9.0965    0.0000 H   0  0  0  0  0  0  0  0  0  0  0  0
    9.0700   -8.3209    0.0000 H   0  0  0  0  0  0  0  0  0  0  0  0
    7.9887   -9.2505    0.0000 N   0  0  0  0  0  0  0  0  0  0  0  0
    8.5288   -9.8741    0.0000 C   0  0  0  0  0  0  0  0  0  0  0  0
    9.3390   -9.7182    0.0000 C   0  0  0  0  0  0  0  0  0  0  0  0
    9.9616   -9.1770    0.0000 H   0  0  0  0  0  0  0  0  0  0  0  0
    9.8790  -10.3418    0.0000 C   0  0  0  0  0  0  0  0  0  0  0  0
   10.6892  -10.1859    0.0000 H   0  0  0  0  0  0  0  0  0  0  0  0
    9.6090  -11.1214    0.0000 C   0  0  0  0  0  0  0  0  0  0  0  0
   10.1491  -11.7450    0.0000 H   0  0  0  0  0  0  0  0  0  0  0  0
    8.7989  -11.2773    0.0000 C   0  0  0  0  0  0  0  0  0  0  0  0
    8.5288  -12.0569    0.0000 H   0  0  0  0  0  0  0  0  0  0  0  0
    8.2588  -10.6537    0.0000 C   0  0  0  0  0  0  0  0  0  0  0  0
    7.4486  -10.8096    0.0000 H   0  0  0  0  0  0  0  0  0  0  0  0
    7.1786   -9.4064    0.0000 C   0  0  0  0  0  0  0  0  0  0  0  0
    6.5874   -9.9818    0.0000 H   0  0  0  0  0  0  0  0  0  0  0  0
    7.2871  -10.2242    0.0000 H   0  0  0  0  0  0  0  0  0  0  0  0
    6.6385   -8.7827    0.0000 C   0  0  0  0  0  0  0  0  0  0  0  0
    6.1181   -9.4229    0.0000 H   0  0  0  0  0  0  0  0  0  0  0  0
    6.6514   -9.6076    0.0000 H   0  0  0  0  0  0  0  0  0  0  0  0
    7.1786   -7.2236    0.0000 H   0  0  0  0  0  0  0  0  0  0  0  0
    4.7482   -7.6914    0.0000 H   0  0  0  0  0  0  0  0  0  0  0  0
  1  2  2  0  0  0  0
  2  3  1  0  0  0  0
  3  4  1  0  0  0  0
  4  5  1  0  0  0  0
  5  6  1  0  0  0  0
  6  7  2  0  0  0  0
  7  8  1  0  0  0  0
  7  9  1  0  0  0  0
  9 10  1  0  0  0  0
  9 11  2  0  0  0  0
 11 12  1  0  0  0  0
 11 13  1  0  0  0  0
 13 14  1  0  0  0  0
 13 15  2  0  0  0  0
  6 15  1  0  0  0  0
 15 16  1  0  0  0  0
  5 17  1  0  0  0  0
  5 18  1  0  0  0  0
  4 19  1  0  0  0  0
  4 20  1  0  0  0  0
  3 21  1  0  0  0  0
  2 22  1  0  0  0  0
 22 23  1  0  0  0  0
 23 24  2  0  0  0  0
 24 25  1  0  0  0  0
 24 26  1  0  0  0  0
 26 27  1  0  0  0  0
 26 28  2  0  0  0  0
 28 29  1  0  0  0  0
 28 30  1  0  0  0  0
 30 31  2  0  0  0  0
 23 31  1  0  0  0  0
 31 32  1  0  0  0  0
 22 33  1  0  0  0  0
 33 34  1  0  0  0  0
 34 35  2  0  0  0  0
 34 36  1  0  0  0  0
 36 37  2  0  0  0  0
 37 38  1  0  0  0  0
 37 39  1  0  0  0  0
 39 40  1  0  0  0  0
 39 41  2  0  0  0  0
 41 42  1  0  0  0  0
 41 43  1  0  0  0  0
 36 43  1  0  0  0  0
 33 44  1  0  0  0  0
 44 45  1  0  0  0  0
 45 46  1  0  0  0  0
 45 47  1  0  0  0  0
 45 48  1  0  0  0  0
 48 49  1  0  0  0  0
 48 50  1  0  0  0  0
 48 51  1  0  0  0  0
 51 52  1  0  0  0  0
 52 53  2  0  0  0  0
 53 54  1  0  0  0  0
 53 55  1  0  0  0  0
 55 56  1  0  0  0  0
 55 57  2  0  0  0  0
 57 58  1  0  0  0  0
 57 59  1  0  0  0  0
 59 60  1  0  0  0  0
 59 61  2  0  0  0  0
 52 61  1  0  0  0  0
 61 62  1  0  0  0  0
 51 63  1  0  0  0  0
 63 64  1  0  0  0  0
 63 65  1  0  0  0  0
 63 66  1  0  0  0  0
 44 66  1  0  0  0  0
 66 67  1  0  0  0  0
 66 68  1  0  0  0  0
 44 69  1  0  0  0  0
 22 70  1  0  0  0  0
M  END
> <Potency>
79.6127987176393

> <pIC50>
4.099017108573495

> <Outcome>
Inactive

> <is_active>
0

$$$$

  Mrv1921 08232120312D          

 37 39  0  0  0  0            999 V2000
    0.0000    0.8250    0.0000 N   0  0  0  0  0  0  0  0  0  0  0  0
    0.0000   -0.0000    0.0000 C   0  0  0  0  0  0  0  0  0  0  0  0
   -0.7145   -0.4125    0.0000 C   0  0  0  0  0  0  0  0  0  0  0  0
   -1.4289   -0.0000    0.0000 H   0  0  0  0  0  0  0  0  0  0  0  0
   -0.7145   -1.2375    0.0000 N   0  0  0  0  0  0  0  0  0  0  0  0
    0.0000   -1.6500    0.0000 C   0  0  0  0  0  0  0  0  0  0  0  0
    0.0000   -2.4750    0.0000 H   0  0  0  0  0  0  0  0  0  0  0  0
    0.7145   -1.2375    0.0000 C   0  0  0  0  0  0  0  0  0  0  0  0
    0.7145   -0.4125    0.0000 C   0  0  0  0  0  0  0  0  0  0  0  0
    1.4289   -0.0000    0.0000 C   0  0  0  0  0  0  0  0  0  0  0  0
    2.1434   -0.4125    0.0000 C   0  0  0  0  0  0  0  0  0  0  0  0
    2.1434   -1.2375    0.0000 C   0  0  0  0  0  0  0  0  0  0  0  0
    1.4289   -1.6500    0.0000 N   0  0  0  0  0  0  0  0  0  0  0  0
    1.4289   -2.4750    0.0000 C   0  0  0  0  0  0  0  0  0  0  0  0
    0.7145   -2.8875    0.0000 O   0  0  0  0  0  0  0  0  0  0  0  0
    2.1434   -2.8875    0.0000 C   0  0  0  0  0  0  0  0  0  0  0  0
    2.1434   -3.7125    0.0000 C   0  0  0  0  0  0  0  0  0  0  0  0
    2.8579   -4.1250    0.0000 C   0  0  0  0  0  0  0  0  0  0  0  0
    3.5724   -3.7125    0.0000 H   0  0  0  0  0  0  0  0  0  0  0  0
    2.8579   -4.9500    0.0000 C   0  0  0  0  0  0  0  0  0  0  0  0
    3.5724   -5.3625    0.0000 H   0  0  0  0  0  0  0  0  0  0  0  0
    2.1434   -5.3625    0.0000 C   0  0  0  0  0  0  0  0  0  0  0  0
    2.1434   -6.1875    0.0000 H   0  0  0  0  0  0  0  0  0  0  0  0
    1.4289   -4.9500    0.0000 C   0  0  0  0  0  0  0  0  0  0  0  0
    0.7145   -5.3625    0.0000 Cl  0  0  0  0  0  0  0  0  0  0  0  0
    1.4289   -4.1250    0.0000 C   0  0  0  0  0  0  0  0  0  0  0  0
    0.7145   -3.7125    0.0000 H   0  0  0  0  0  0  0  0  0  0  0  0
    2.9670   -2.8395    0.0000 H   0  0  0  0  0  0  0  0  0  0  0  0
    2.5968   -2.1982    0.0000 H   0  0  0  0  0  0  0  0  0  0  0  0
    2.5968   -1.9268    0.0000 H   0  0  0  0  0  0  0  0  0  0  0  0
    2.9670   -1.2855    0.0000 H   0  0  0  0  0  0  0  0  0  0  0  0
    2.9670   -0.3645    0.0000 H   0  0  0  0  0  0  0  0  0  0  0  0
    2.5968    0.2768    0.0000 H   0  0  0  0  0  0  0  0  0  0  0  0
    1.7992    0.7372    0.0000 H   0  0  0  0  0  0  0  0  0  0  0  0
    1.0587    0.7372    0.0000 H   0  0  0  0  0  0  0  0  0  0  0  0
    0.7145    1.2375    0.0000 H   0  0  0  0  0  0  0  0  0  0  0  0
   -0.7145    1.2375    0.0000 H   0  0  0  0  0  0  0  0  0  0  0  0
  1  2  1  0  0  0  0
  2  3  2  0  0  0  0
  3  4  1  0  0  0  0
  3  5  1  0  0  0  0
  5  6  2  0  0  0  0
  6  7  1  0  0  0  0
  6  8  1  0  0  0  0
  8  9  2  0  0  0  0
  2  9  1  0  0  0  0
  9 10  1  0  0  0  0
 10 11  1  0  0  0  0
 11 12  1  0  0  0  0
 12 13  1  0  0  0  0
  8 13  1  0  0  0  0
 13 14  1  0  0  0  0
 14 15  2  0  0  0  0
 14 16  1  0  0  0  0
 16 17  1  0  0  0  0
 17 18  2  0  0  0  0
 18 19  1  0  0  0  0
 18 20  1  0  0  0  0
 20 21  1  0  0  0  0
 20 22  2  0  0  0  0
 22 23  1  0  0  0  0
 22 24  1  0  0  0  0
 24 25  1  0  0  0  0
 24 26  2  0  0  0  0
 17 26  1  0  0  0  0
 26 27  1  0  0  0  0
 16 28  1  0  0  0  0
 16 29  1  0  0  0  0
 12 30  1  0  0  0  0
 12 31  1  0  0  0  0
 11 32  1  0  0  0  0
 11 33  1  0  0  0  0
 10 34  1  0  0  0  0
 10 35  1  0  0  0  0
  1 36  1  0  0  0  0
  1 37  1  0  0  0  0
M  END
> <Potency>
32.5061024206567

> <pIC50>
4.488035100595453

> <Outcome>
Inactive

> <is_active>
0

$$$$

  Mrv1921 08232120312D          

 62 64  0  0  0  0            999 V2000
   -0.7145   -2.8875    0.0000 C   0  0  0  0  0  0  0  0  0  0  0  0
   -1.4289   -2.4750    0.0000 C   0  0  0  0  0  0  0  0  0  0  0  0
   -2.1434   -2.8875    0.0000 C   0  0  0  0  0  0  0  0  0  0  0  0
   -2.5559   -3.6020    0.0000 H   0  0  0  0  0  0  0  0  0  0  0  0
   -2.8579   -2.4750    0.0000 C   0  0  0  0  0  0  0  0  0  0  0  0
   -3.5724   -2.8875    0.0000 H   0  0  0  0  0  0  0  0  0  0  0  0
   -2.8579   -1.6500    0.0000 N   0  0  0  0  0  0  0  0  0  0  0  0
   -2.1434   -1.2375    0.0000 C   0  0  0  0  0  0  0  0  0  0  0  0
   -2.1434   -0.4125    0.0000 H   0  0  0  0  0  0  0  0  0  0  0  0
   -1.4289   -1.6500    0.0000 C   0  0  0  0  0  0  0  0  0  0  0  0
   -0.7145   -1.2375    0.0000 N   0  0  0  0  0  0  0  0  0  0  0  0
    0.0000   -1.6500    0.0000 C   0  0  0  0  0  0  0  0  0  0  0  0
    0.0000   -2.4750    0.0000 O   0  0  0  0  0  0  0  0  0  0  0  0
    0.7145   -1.2375    0.0000 N   0  0  0  0  0  0  0  0  0  0  0  0
    1.4289   -1.6500    0.0000 C   0  0  0  0  0  0  0  0  0  0  0  0
    2.1434   -1.2375    0.0000 C   0  0  0  0  0  0  0  0  0  0  0  0
    2.8579   -1.6500    0.0000 C   0  0  0  0  0  0  0  0  0  0  0  0
    3.5724   -1.2375    0.0000 C   0  0  0  0  0  0  0  0  0  0  0  0
    3.9426   -0.5003    0.0000 H   0  0  0  0  0  0  0  0  0  0  0  0
    3.2021   -0.5003    0.0000 H   0  0  0  0  0  0  0  0  0  0  0  0
    4.2868   -1.6500    0.0000 C   0  0  0  0  0  0  0  0  0  0  0  0
    5.1104   -1.6020    0.0000 H   0  0  0  0  0  0  0  0  0  0  0  0
    4.7402   -0.9607    0.0000 H   0  0  0  0  0  0  0  0  0  0  0  0
    4.2868   -2.4750    0.0000 C   0  0  0  0  0  0  0  0  0  0  0  0
    4.7402   -3.1643    0.0000 H   0  0  0  0  0  0  0  0  0  0  0  0
    5.1104   -2.5230    0.0000 H   0  0  0  0  0  0  0  0  0  0  0  0
    3.5724   -2.8875    0.0000 C   0  0  0  0  0  0  0  0  0  0  0  0
    3.2021   -3.6247    0.0000 H   0  0  0  0  0  0  0  0  0  0  0  0
    3.9426   -3.6247    0.0000 H   0  0  0  0  0  0  0  0  0  0  0  0
    2.8579   -2.4750    0.0000 C   0  0  0  0  0  0  0  0  0  0  0  0
    2.2259   -3.0053    0.0000 H   0  0  0  0  0  0  0  0  0  0  0  0
    2.7146   -3.2875    0.0000 H   0  0  0  0  0  0  0  0  0  0  0  0
    2.1434   -2.0625    0.0000 H   0  0  0  0  0  0  0  0  0  0  0  0
    2.5137   -0.5003    0.0000 H   0  0  0  0  0  0  0  0  0  0  0  0
    1.7732   -0.5003    0.0000 H   0  0  0  0  0  0  0  0  0  0  0  0
    1.0587   -2.3872    0.0000 H   0  0  0  0  0  0  0  0  0  0  0  0
    1.7992   -2.3872    0.0000 H   0  0  0  0  0  0  0  0  0  0  0  0
    0.7145   -0.4125    0.0000 C   0  0  0  0  0  0  0  0  0  0  0  0
    0.0000    0.0000    0.0000 C   0  0  0  0  0  0  0  0  0  0  0  0
    0.0000   -0.8250    0.0000 H   0  0  0  0  0  0  0  0  0  0  0  0
    0.0000    0.8250    0.0000 C   0  0  0  0  0  0  0  0  0  0  0  0
   -0.7145    1.2375    0.0000 Cl  0  0  0  0  0  0  0  0  0  0  0  0
    0.7145    1.2375    0.0000 C   0  0  0  0  0  0  0  0  0  0  0  0
    0.7145    2.0625    0.0000 H   0  0  0  0  0  0  0  0  0  0  0  0
    1.4289    0.8250    0.0000 C   0  0  0  0  0  0  0  0  0  0  0  0
    2.1434    1.2375    0.0000 O   0  0  0  0  0  0  0  0  0  0  0  0
    2.1434    2.0625    0.0000 C   0  0  0  0  0  0  0  0  0  0  0  0
    1.4289    2.4750    0.0000 C   0  0  0  0  0  0  0  0  0  0  0  0
    2.1434    2.8875    0.0000 H   0  0  0  0  0  0  0  0  0  0  0  0
    1.4289    3.3000    0.0000 H   0  0  0  0  0  0  0  0  0  0  0  0
    0.7145    2.8875    0.0000 H   0  0  0  0  0  0  0  0  0  0  0  0
    2.8579    2.4750    0.0000 C   0  0  0  0  0  0  0  0  0  0  0  0
    3.0714    1.6781    0.0000 H   0  0  0  0  0  0  0  0  0  0  0  0
    3.6829    2.4750    0.0000 H   0  0  0  0  0  0  0  0  0  0  0  0
    3.0714    3.2719    0.0000 H   0  0  0  0  0  0  0  0  0  0  0  0
    1.4289    1.6500    0.0000 H   0  0  0  0  0  0  0  0  0  0  0  0
    1.4289    0.0000    0.0000 C   0  0  0  0  0  0  0  0  0  0  0  0
    2.2168    0.2449    0.0000 H   0  0  0  0  0  0  0  0  0  0  0  0
   -0.7145   -0.4125    0.0000 H   0  0  0  0  0  0  0  0  0  0  0  0
   -1.4289   -3.3000    0.0000 H   0  0  0  0  0  0  0  0  0  0  0  0
   -0.7145   -3.7125    0.0000 H   0  0  0  0  0  0  0  0  0  0  0  0
    0.0000   -3.3000    0.0000 H   0  0  0  0  0  0  0  0  0  0  0  0
  1  2  1  0  0  0  0
  2  3  2  0  0  0  0
  3  4  1  0  0  0  0
  3  5  1  0  0  0  0
  5  6  1  0  0  0  0
  5  7  2  0  0  0  0
  7  8  1  0  0  0  0
  8  9  1  0  0  0  0
  8 10  2  0  0  0  0
  2 10  1  0  0  0  0
 10 11  1  0  0  0  0
 11 12  1  0  0  0  0
 12 13  2  0  0  0  0
 12 14  1  0  0  0  0
 14 15  1  0  0  0  0
 15 16  1  0  0  0  0
 16 17  1  0  0  0  0
 17 18  1  0  0  0  0
 18 19  1  0  0  0  0
 18 20  1  0  0  0  0
 18 21  1  0  0  0  0
 21 22  1  0  0  0  0
 21 23  1  0  0  0  0
 21 24  1  0  0  0  0
 24 25  1  0  0  0  0
 24 26  1  0  0  0  0
 24 27  1  0  0  0  0
 27 28  1  0  0  0  0
 27 29  1  0  0  0  0
 27 30  1  0  0  0  0
 17 30  1  0  0  0  0
 30 31  1  0  0  0  0
 30 32  1  0  0  0  0
 17 33  1  0  0  0  0
 16 34  1  0  0  0  0
 16 35  1  0  0  0  0
 15 36  1  0  0  0  0
 15 37  1  0  0  0  0
 14 38  1  0  0  0  0
 38 39  2  0  0  0  0
 39 40  1  0  0  0  0
 39 41  1  0  0  0  0
 41 42  1  0  0  0  0
 41 43  2  0  0  0  0
 43 44  1  0  0  0  0
 43 45  1  0  0  0  0
 45 46  1  0  0  0  0
 46 47  1  0  0  0  0
 47 48  1  0  0  0  0
 48 49  1  0  0  0  0
 48 50  1  0  0  0  0
 48 51  1  0  0  0  0
 47 52  1  0  0  0  0
 52 53  1  0  0  0  0
 52 54  1  0  0  0  0
 52 55  1  0  0  0  0
 47 56  1  0  0  0  0
 45 57  2  0  0  0  0
 38 57  1  0  0  0  0
 57 58  1  0  0  0  0
 11 59  1  0  0  0  0
  1 60  1  0  0  0  0
  1 61  1  0  0  0  0
  1 62  1  0  0  0  0
M  END
> <Potency>
24.5600847569785

> <pIC50>
4.609770138775798

> <Outcome>
Inactive

> <is_active>
0

$$$$

  Mrv1921 08232120312D          

 34 36  0  0  0  0            999 V2000
    4.0668    2.3479    0.0000 C   0  0  0  0  0  0  0  0  0  0  0  0
    3.3523    1.9354    0.0000 C   0  0  0  0  0  0  0  0  0  0  0  0
    3.3523    1.1104    0.0000 C   0  0  0  0  0  0  0  0  0  0  0  0
    3.7648    0.3960    0.0000 H   0  0  0  0  0  0  0  0  0  0  0  0
    2.6378    0.6979    0.0000 C   0  0  0  0  0  0  0  0  0  0  0  0
    2.6378   -0.1271    0.0000 H   0  0  0  0  0  0  0  0  0  0  0  0
    1.9233    1.1104    0.0000 N   0  0  0  0  0  0  0  0  0  0  0  0
    1.1387    0.8555    0.0000 C   0  0  0  0  0  0  0  0  0  0  0  0
    0.6538    1.5229    0.0000 N   0  0  0  0  0  0  0  0  0  0  0  0
    1.1387    2.1904    0.0000 N   0  0  0  0  0  0  0  0  0  0  0  0
    1.9233    1.9354    0.0000 C   0  0  0  0  0  0  0  0  0  0  0  0
    2.6378    2.3479    0.0000 C   0  0  0  0  0  0  0  0  0  0  0  0
    2.6378    3.1729    0.0000 N   0  0  0  0  0  0  0  0  0  0  0  0
    3.3523    3.5854    0.0000 C   0  0  0  0  0  0  0  0  0  0  0  0
    4.0668    3.1729    0.0000 O   0  0  0  0  0  0  0  0  0  0  0  0
    3.3523    4.4104    0.0000 C   0  0  0  0  0  0  0  0  0  0  0  0
    4.0668    4.8229    0.0000 C   0  0  0  0  0  0  0  0  0  0  0  0
    4.0668    5.6479    0.0000 C   0  0  0  0  0  0  0  0  0  0  0  0
    3.3523    6.0604    0.0000 H   0  0  0  0  0  0  0  0  0  0  0  0
    4.7812    6.0604    0.0000 C   0  0  0  0  0  0  0  0  0  0  0  0
    4.7812    6.8854    0.0000 H   0  0  0  0  0  0  0  0  0  0  0  0
    5.4957    5.6479    0.0000 C   0  0  0  0  0  0  0  0  0  0  0  0
    6.2102    6.0604    0.0000 H   0  0  0  0  0  0  0  0  0  0  0  0
    5.4957    4.8229    0.0000 C   0  0  0  0  0  0  0  0  0  0  0  0
    6.2102    4.4104    0.0000 Cl  0  0  0  0  0  0  0  0  0  0  0  0
    4.7812    4.4104    0.0000 C   0  0  0  0  0  0  0  0  0  0  0  0
    4.7812    3.5854    0.0000 H   0  0  0  0  0  0  0  0  0  0  0  0
    2.8989    5.0997    0.0000 H   0  0  0  0  0  0  0  0  0  0  0  0
    2.5287    4.4584    0.0000 H   0  0  0  0  0  0  0  0  0  0  0  0
    1.9233    3.5854    0.0000 H   0  0  0  0  0  0  0  0  0  0  0  0
    0.8838    0.0709    0.0000 H   0  0  0  0  0  0  0  0  0  0  0  0
    4.0668    1.5229    0.0000 H   0  0  0  0  0  0  0  0  0  0  0  0
    4.7812    1.9354    0.0000 H   0  0  0  0  0  0  0  0  0  0  0  0
    4.7812    2.7604    0.0000 H   0  0  0  0  0  0  0  0  0  0  0  0
  1  2  1  0  0  0  0
  2  3  1  0  0  0  0
  3  4  1  0  0  0  0
  3  5  2  0  0  0  0
  5  6  1  0  0  0  0
  5  7  1  0  0  0  0
  7  8  1  0  0  0  0
  8  9  2  0  0  0  0
  9 10  1  0  0  0  0
 10 11  2  0  0  0  0
  7 11  1  0  0  0  0
 11 12  1  0  0  0  0
  2 12  2  0  0  0  0
 12 13  1  0  0  0  0
 13 14  1  0  0  0  0
 14 15  2  0  0  0  0
 14 16  1  0  0  0  0
 16 17  1  0  0  0  0
 17 18  2  0  0  0  0
 18 19  1  0  0  0  0
 18 20  1  0  0  0  0
 20 21  1  0  0  0  0
 20 22  2  0  0  0  0
 22 23  1  0  0  0  0
 22 24  1  0  0  0  0
 24 25  1  0  0  0  0
 24 26  2  0  0  0  0
 17 26  1  0  0  0  0
 26 27  1  0  0  0  0
 16 28  1  0  0  0  0
 16 29  1  0  0  0  0
 13 30  1  0  0  0  0
  8 31  1  0  0  0  0
  1 32  1  0  0  0  0
  1 33  1  0  0  0  0
  1 34  1  0  0  0  0
M  END
> <Potency>
75.2573815369256

> <pIC50>
4.123450896351622

> <Outcome>
Inactive

> <is_active>
0

$$$$

  Mrv1921 08232120312D          

 35 37  0  0  0  0            999 V2000
   -0.4752   -1.7084    0.0000 O   0  0  0  0  0  0  0  0  0  0  0  0
    0.0768   -2.3215    0.0000 C   0  0  0  0  0  0  0  0  0  0  0  0
   -0.1781   -3.1062    0.0000 C   0  0  0  0  0  0  0  0  0  0  0  0
   -0.9851   -3.2777    0.0000 C   0  0  0  0  0  0  0  0  0  0  0  0
   -1.2400   -4.0623    0.0000 C   0  0  0  0  0  0  0  0  0  0  0  0
   -0.6880   -4.6754    0.0000 H   0  0  0  0  0  0  0  0  0  0  0  0
   -2.0470   -4.2338    0.0000 C   0  0  0  0  0  0  0  0  0  0  0  0
   -2.3020   -5.0184    0.0000 H   0  0  0  0  0  0  0  0  0  0  0  0
   -2.5990   -3.6207    0.0000 C   0  0  0  0  0  0  0  0  0  0  0  0
   -3.4060   -3.7923    0.0000 H   0  0  0  0  0  0  0  0  0  0  0  0
   -2.3441   -2.8361    0.0000 C   0  0  0  0  0  0  0  0  0  0  0  0
   -2.8961   -2.2230    0.0000 Cl  0  0  0  0  0  0  0  0  0  0  0  0
   -1.5371   -2.6646    0.0000 C   0  0  0  0  0  0  0  0  0  0  0  0
   -1.2822   -1.8800    0.0000 H   0  0  0  0  0  0  0  0  0  0  0  0
    0.0400   -3.9018    0.0000 H   0  0  0  0  0  0  0  0  0  0  0  0
    0.5903   -3.4063    0.0000 H   0  0  0  0  0  0  0  0  0  0  0  0
    0.8838   -2.1500    0.0000 N   0  0  0  0  0  0  0  0  0  0  0  0
    1.1387   -1.3654    0.0000 C   0  0  0  0  0  0  0  0  0  0  0  0
    0.6538   -0.6979    0.0000 C   0  0  0  0  0  0  0  0  0  0  0  0
   -0.0746   -0.3106    0.0000 H   0  0  0  0  0  0  0  0  0  0  0  0
   -0.0746   -1.0853    0.0000 H   0  0  0  0  0  0  0  0  0  0  0  0
    1.1387   -0.0305    0.0000 C   0  0  0  0  0  0  0  0  0  0  0  0
    0.8838    0.7541    0.0000 O   0  0  0  0  0  0  0  0  0  0  0  0
    1.9233   -0.2854    0.0000 C   0  0  0  0  0  0  0  0  0  0  0  0
    2.6378    0.1271    0.0000 C   0  0  0  0  0  0  0  0  0  0  0  0
    3.3523   -0.2854    0.0000 C   0  0  0  0  0  0  0  0  0  0  0  0
    3.3523   -1.1104    0.0000 C   0  0  0  0  0  0  0  0  0  0  0  0
    2.6378   -1.5229    0.0000 C   0  0  0  0  0  0  0  0  0  0  0  0
    2.6378   -2.3479    0.0000 H   0  0  0  0  0  0  0  0  0  0  0  0
    1.9233   -1.1104    0.0000 C   0  0  0  0  0  0  0  0  0  0  0  0
    4.0668   -1.5229    0.0000 H   0  0  0  0  0  0  0  0  0  0  0  0
    4.0668    0.1271    0.0000 H   0  0  0  0  0  0  0  0  0  0  0  0
    2.6378    0.9521    0.0000 H   0  0  0  0  0  0  0  0  0  0  0  0
    1.7221   -1.9487    0.0000 H   0  0  0  0  0  0  0  0  0  0  0  0
    1.4358   -2.7631    0.0000 H   0  0  0  0  0  0  0  0  0  0  0  0
  1  2  2  0  0  0  0
  2  3  1  0  0  0  0
  3  4  1  0  0  0  0
  4  5  2  0  0  0  0
  5  6  1  0  0  0  0
  5  7  1  0  0  0  0
  7  8  1  0  0  0  0
  7  9  2  0  0  0  0
  9 10  1  0  0  0  0
  9 11  1  0  0  0  0
 11 12  1  0  0  0  0
 11 13  2  0  0  0  0
  4 13  1  0  0  0  0
 13 14  1  0  0  0  0
  3 15  1  0  0  0  0
  3 16  1  0  0  0  0
  2 17  1  0  0  0  0
 17 18  1  0  0  0  0
 18 19  1  0  0  0  0
 19 20  1  0  0  0  0
 19 21  1  0  0  0  0
 19 22  1  0  0  0  0
 22 23  2  0  0  0  0
 22 24  1  0  0  0  0
 24 25  2  0  0  0  0
 25 26  1  0  0  0  0
 26 27  2  0  0  0  0
 27 28  1  0  0  0  0
 28 29  1  0  0  0  0
 28 30  2  0  0  0  0
 18 30  1  0  0  0  0
 24 30  1  0  0  0  0
 27 31  1  0  0  0  0
 26 32  1  0  0  0  0
 25 33  1  0  0  0  0
 18 34  1  0  0  0  0
 17 35  1  0  0  0  0
M  END
> <Potency>
53.7587644021632

> <pIC50>
4.269550721715561

> <Outcome>
Inactive

> <is_active>
0

$$$$

  Mrv1921 08232120312D          

 40 43  0  0  0  0            999 V2000
    7.6058    2.0009    0.0000 C   0  0  0  0  0  0  0  0  0  0  0  0
    7.6058    1.1759    0.0000 O   0  0  0  0  0  0  0  0  0  0  0  0
    6.8913    0.7634    0.0000 C   0  0  0  0  0  0  0  0  0  0  0  0
    6.8913   -0.0616    0.0000 C   0  0  0  0  0  0  0  0  0  0  0  0
    7.6058   -0.4741    0.0000 H   0  0  0  0  0  0  0  0  0  0  0  0
    6.1768   -0.4741    0.0000 C   0  0  0  0  0  0  0  0  0  0  0  0
    6.1768   -1.2991    0.0000 H   0  0  0  0  0  0  0  0  0  0  0  0
    5.4623   -0.0616    0.0000 C   0  0  0  0  0  0  0  0  0  0  0  0
    4.6777   -0.3165    0.0000 C   0  0  0  0  0  0  0  0  0  0  0  0
    4.4228   -1.1012    0.0000 N   0  0  0  0  0  0  0  0  0  0  0  0
    3.6158   -1.2727    0.0000 C   0  0  0  0  0  0  0  0  0  0  0  0
    3.0638   -0.6596    0.0000 O   0  0  0  0  0  0  0  0  0  0  0  0
    3.3609   -2.0573    0.0000 C   0  0  0  0  0  0  0  0  0  0  0  0
    3.9129   -2.6704    0.0000 C   0  0  0  0  0  0  0  0  0  0  0  0
    4.7110   -2.8793    0.0000 H   0  0  0  0  0  0  0  0  0  0  0  0
    4.5571   -2.1550    0.0000 H   0  0  0  0  0  0  0  0  0  0  0  0
    3.6580   -3.4550    0.0000 C   0  0  0  0  0  0  0  0  0  0  0  0
    3.8761   -4.2507    0.0000 H   0  0  0  0  0  0  0  0  0  0  0  0
    4.4264   -3.7552    0.0000 H   0  0  0  0  0  0  0  0  0  0  0  0
    2.8510   -3.6266    0.0000 O   0  0  0  0  0  0  0  0  0  0  0  0
    2.2990   -3.0135    0.0000 C   0  0  0  0  0  0  0  0  0  0  0  0
    1.4920   -3.1850    0.0000 C   0  0  0  0  0  0  0  0  0  0  0  0
    0.9400   -2.5719    0.0000 C   0  0  0  0  0  0  0  0  0  0  0  0
    1.1949   -1.7873    0.0000 C   0  0  0  0  0  0  0  0  0  0  0  0
    0.6429   -1.1742    0.0000 Cl  0  0  0  0  0  0  0  0  0  0  0  0
    2.0019   -1.6157    0.0000 C   0  0  0  0  0  0  0  0  0  0  0  0
    1.8303   -0.8088    0.0000 H   0  0  0  0  0  0  0  0  0  0  0  0
    2.5539   -2.2288    0.0000 C   0  0  0  0  0  0  0  0  0  0  0  0
    0.1330   -2.7434    0.0000 H   0  0  0  0  0  0  0  0  0  0  0  0
    1.2371   -3.9696    0.0000 H   0  0  0  0  0  0  0  0  0  0  0  0
    2.8088   -1.4442    0.0000 H   0  0  0  0  0  0  0  0  0  0  0  0
    4.9748   -1.7143    0.0000 H   0  0  0  0  0  0  0  0  0  0  0  0
    4.1928    0.3509    0.0000 N   0  0  0  0  0  0  0  0  0  0  0  0
    4.6777    1.0183    0.0000 O   0  0  0  0  0  0  0  0  0  0  0  0
    5.4623    0.7634    0.0000 C   0  0  0  0  0  0  0  0  0  0  0  0
    6.1768    1.1759    0.0000 C   0  0  0  0  0  0  0  0  0  0  0  0
    6.1768    2.0009    0.0000 H   0  0  0  0  0  0  0  0  0  0  0  0
    8.4308    2.0009    0.0000 H   0  0  0  0  0  0  0  0  0  0  0  0
    7.6058    2.8259    0.0000 H   0  0  0  0  0  0  0  0  0  0  0  0
    6.7808    2.0009    0.0000 H   0  0  0  0  0  0  0  0  0  0  0  0
  1  2  1  0  0  0  0
  2  3  1  0  0  0  0
  3  4  2  0  0  0  0
  4  5  1  0  0  0  0
  4  6  1  0  0  0  0
  6  7  1  0  0  0  0
  6  8  2  0  0  0  0
  8  9  1  0  0  0  0
  9 10  1  0  0  0  0
 10 11  1  0  0  0  0
 11 12  2  0  0  0  0
 11 13  1  0  0  0  0
 13 14  1  0  0  0  0
 14 15  1  0  0  0  0
 14 16  1  0  0  0  0
 14 17  1  0  0  0  0
 17 18  1  0  0  0  0
 17 19  1  0  0  0  0
 17 20  1  0  0  0  0
 20 21  1  0  0  0  0
 21 22  2  0  0  0  0
 22 23  1  0  0  0  0
 23 24  2  0  0  0  0
 24 25  1  0  0  0  0
 24 26  1  0  0  0  0
 26 27  1  0  0  0  0
 26 28  2  0  0  0  0
 13 28  1  0  0  0  0
 21 28  1  0  0  0  0
 23 29  1  0  0  0  0
 22 30  1  0  0  0  0
 13 31  1  0  0  0  0
 10 32  1  0  0  0  0
  9 33  2  0  0  0  0
 33 34  1  0  0  0  0
 34 35  1  0  0  0  0
  8 35  1  0  0  0  0
 35 36  2  0  0  0  0
  3 36  1  0  0  0  0
 36 37  1  0  0  0  0
  1 38  1  0  0  0  0
  1 39  1  0  0  0  0
  1 40  1  0  0  0  0
M  END
> <Potency>
61.502193910527

> <pIC50>
4.211109391765376

> <Outcome>
Inactive

> <is_active>
0

$$$$

  Mrv1921 08232120312D          

 36 39  0  0  0  0            999 V2000
    2.1434   -2.8875    0.0000 O   0  0  0  0  0  0  0  0  0  0  0  0
    1.4289   -2.4750    0.0000 C   0  0  0  0  0  0  0  0  0  0  0  0
    0.7145   -2.8875    0.0000 N   0  0  0  0  0  0  0  0  0  0  0  0
    0.7145   -3.7125    0.0000 C   0  0  0  0  0  0  0  0  0  0  0  0
    1.3819   -4.1974    0.0000 N   0  0  0  0  0  0  0  0  0  0  0  0
    1.1270   -4.9820    0.0000 N   0  0  0  0  0  0  0  0  0  0  0  0
    1.6119   -5.6495    0.0000 H   0  0  0  0  0  0  0  0  0  0  0  0
    0.3020   -4.9820    0.0000 C   0  0  0  0  0  0  0  0  0  0  0  0
   -0.2501   -5.5951    0.0000 C   0  0  0  0  0  0  0  0  0  0  0  0
   -1.0570   -5.4236    0.0000 C   0  0  0  0  0  0  0  0  0  0  0  0
   -1.3120   -4.6390    0.0000 N   0  0  0  0  0  0  0  0  0  0  0  0
   -0.7599   -4.0259    0.0000 C   0  0  0  0  0  0  0  0  0  0  0  0
   -1.0149   -3.2413    0.0000 H   0  0  0  0  0  0  0  0  0  0  0  0
    0.0470   -4.1974    0.0000 C   0  0  0  0  0  0  0  0  0  0  0  0
   -1.6091   -6.0367    0.0000 H   0  0  0  0  0  0  0  0  0  0  0  0
    0.0049   -6.3798    0.0000 H   0  0  0  0  0  0  0  0  0  0  0  0
    0.0000   -2.4750    0.0000 H   0  0  0  0  0  0  0  0  0  0  0  0
    1.4289   -1.6500    0.0000 C   0  0  0  0  0  0  0  0  0  0  0  0
    0.7145   -1.2375    0.0000 C   0  0  0  0  0  0  0  0  0  0  0  0
   -0.1091   -1.2855    0.0000 H   0  0  0  0  0  0  0  0  0  0  0  0
    0.2611   -1.9268    0.0000 H   0  0  0  0  0  0  0  0  0  0  0  0
    0.7145   -0.4125    0.0000 C   0  0  0  0  0  0  0  0  0  0  0  0
    0.2611    0.2768    0.0000 H   0  0  0  0  0  0  0  0  0  0  0  0
   -0.1091   -0.3645    0.0000 H   0  0  0  0  0  0  0  0  0  0  0  0
    1.4289    0.0000    0.0000 O   0  0  0  0  0  0  0  0  0  0  0  0
    2.1434   -0.4125    0.0000 C   0  0  0  0  0  0  0  0  0  0  0  0
    2.8579    0.0000    0.0000 C   0  0  0  0  0  0  0  0  0  0  0  0
    3.5724   -0.4125    0.0000 C   0  0  0  0  0  0  0  0  0  0  0  0
    3.5724   -1.2375    0.0000 C   0  0  0  0  0  0  0  0  0  0  0  0
    4.2868   -1.6500    0.0000 Cl  0  0  0  0  0  0  0  0  0  0  0  0
    2.8579   -1.6500    0.0000 C   0  0  0  0  0  0  0  0  0  0  0  0
    3.2704   -2.3645    0.0000 H   0  0  0  0  0  0  0  0  0  0  0  0
    2.1434   -1.2375    0.0000 C   0  0  0  0  0  0  0  0  0  0  0  0
    4.2868   -0.0000    0.0000 H   0  0  0  0  0  0  0  0  0  0  0  0
    2.8579    0.8250    0.0000 H   0  0  0  0  0  0  0  0  0  0  0  0
    2.1434   -2.0625    0.0000 H   0  0  0  0  0  0  0  0  0  0  0  0
  1  2  2  0  0  0  0
  2  3  1  0  0  0  0
  3  4  1  0  0  0  0
  4  5  2  0  0  0  0
  5  6  1  0  0  0  0
  6  7  1  0  0  0  0
  6  8  1  0  0  0  0
  8  9  1  0  0  0  0
  9 10  2  0  0  0  0
 10 11  1  0  0  0  0
 11 12  2  0  0  0  0
 12 13  1  0  0  0  0
 12 14  1  0  0  0  0
  4 14  1  0  0  0  0
  8 14  2  0  0  0  0
 10 15  1  0  0  0  0
  9 16  1  0  0  0  0
  3 17  1  0  0  0  0
  2 18  1  0  0  0  0
 18 19  1  0  0  0  0
 19 20  1  0  0  0  0
 19 21  1  0  0  0  0
 19 22  1  0  0  0  0
 22 23  1  0  0  0  0
 22 24  1  0  0  0  0
 22 25  1  0  0  0  0
 25 26  1  0  0  0  0
 26 27  2  0  0  0  0
 27 28  1  0  0  0  0
 28 29  2  0  0  0  0
 29 30  1  0  0  0  0
 29 31  1  0  0  0  0
 31 32  1  0  0  0  0
 31 33  2  0  0  0  0
 18 33  1  0  0  0  0
 26 33  1  0  0  0  0
 28 34  1  0  0  0  0
 27 35  1  0  0  0  0
 18 36  1  0  0  0  0
M  END
> <Potency>
70.2526422607212

> <pIC50>
4.153337336936461

> <Outcome>
Inactive

> <is_active>
0

$$$$

  Mrv1921 08232120312D          

 42 45  0  0  0  0            999 V2000
    6.1768    2.0009    0.0000 C   0  0  0  0  0  0  0  0  0  0  0  0
    6.1768    1.1759    0.0000 C   0  0  0  0  0  0  0  0  0  0  0  0
    6.8913    0.7634    0.0000 C   0  0  0  0  0  0  0  0  0  0  0  0
    7.7163    0.7649    0.0000 H   0  0  0  0  0  0  0  0  0  0  0  0
    6.8913   -0.0616    0.0000 C   0  0  0  0  0  0  0  0  0  0  0  0
    7.6058   -0.4741    0.0000 C   0  0  0  0  0  0  0  0  0  0  0  0
    8.3202   -0.8866    0.0000 F   0  0  0  0  0  0  0  0  0  0  0  0
    8.0183    0.2404    0.0000 F   0  0  0  0  0  0  0  0  0  0  0  0
    7.1933   -1.1886    0.0000 F   0  0  0  0  0  0  0  0  0  0  0  0
    6.1768   -0.4741    0.0000 N   0  0  0  0  0  0  0  0  0  0  0  0
    5.4623   -0.0616    0.0000 C   0  0  0  0  0  0  0  0  0  0  0  0
    4.6777   -0.3165    0.0000 N   0  0  0  0  0  0  0  0  0  0  0  0
    4.1928    0.3509    0.0000 N   0  0  0  0  0  0  0  0  0  0  0  0
    4.6777    1.0183    0.0000 C   0  0  0  0  0  0  0  0  0  0  0  0
    4.4228    1.8030    0.0000 N   0  0  0  0  0  0  0  0  0  0  0  0
    4.9748    2.4160    0.0000 C   0  0  0  0  0  0  0  0  0  0  0  0
    5.7818    2.2445    0.0000 O   0  0  0  0  0  0  0  0  0  0  0  0
    4.7199    3.2007    0.0000 C   0  0  0  0  0  0  0  0  0  0  0  0
    3.9129    3.3722    0.0000 C   0  0  0  0  0  0  0  0  0  0  0  0
    3.1444    3.0721    0.0000 H   0  0  0  0  0  0  0  0  0  0  0  0
    3.6948    2.5766    0.0000 H   0  0  0  0  0  0  0  0  0  0  0  0
    3.6580    4.1568    0.0000 C   0  0  0  0  0  0  0  0  0  0  0  0
    3.0138    4.6723    0.0000 H   0  0  0  0  0  0  0  0  0  0  0  0
    2.8599    3.9479    0.0000 H   0  0  0  0  0  0  0  0  0  0  0  0
    4.2100    4.7699    0.0000 O   0  0  0  0  0  0  0  0  0  0  0  0
    5.0170    4.5984    0.0000 C   0  0  0  0  0  0  0  0  0  0  0  0
    5.5690    5.2115    0.0000 C   0  0  0  0  0  0  0  0  0  0  0  0
    6.3760    5.0400    0.0000 C   0  0  0  0  0  0  0  0  0  0  0  0
    6.6309    4.2553    0.0000 C   0  0  0  0  0  0  0  0  0  0  0  0
    7.4379    4.0838    0.0000 Cl  0  0  0  0  0  0  0  0  0  0  0  0
    6.0789    3.6422    0.0000 C   0  0  0  0  0  0  0  0  0  0  0  0
    6.8680    3.4016    0.0000 H   0  0  0  0  0  0  0  0  0  0  0  0
    5.2719    3.8138    0.0000 C   0  0  0  0  0  0  0  0  0  0  0  0
    6.9280    5.6530    0.0000 H   0  0  0  0  0  0  0  0  0  0  0  0
    5.3141    5.9961    0.0000 H   0  0  0  0  0  0  0  0  0  0  0  0
    5.5269    3.0291    0.0000 H   0  0  0  0  0  0  0  0  0  0  0  0
    3.6158    1.9745    0.0000 H   0  0  0  0  0  0  0  0  0  0  0  0
    5.4623    0.7634    0.0000 C   0  0  0  0  0  0  0  0  0  0  0  0
    3.3678    0.3509    0.0000 H   0  0  0  0  0  0  0  0  0  0  0  0
    6.8883    1.5832    0.0000 H   0  0  0  0  0  0  0  0  0  0  0  0
    6.8972    2.4030    0.0000 H   0  0  0  0  0  0  0  0  0  0  0  0
    6.1948    2.8257    0.0000 H   0  0  0  0  0  0  0  0  0  0  0  0
  1  2  1  0  0  0  0
  2  3  2  0  0  0  0
  3  4  1  0  0  0  0
  3  5  1  0  0  0  0
  5  6  1  0  0  0  0
  6  7  1  0  0  0  0
  6  8  1  0  0  0  0
  6  9  1  0  0  0  0
  5 10  2  0  0  0  0
 10 11  1  0  0  0  0
 11 12  2  0  0  0  0
 12 13  1  0  0  0  0
 13 14  1  0  0  0  0
 14 15  1  0  0  0  0
 15 16  1  0  0  0  0
 16 17  2  0  0  0  0
 16 18  1  0  0  0  0
 18 19  1  0  0  0  0
 19 20  1  0  0  0  0
 19 21  1  0  0  0  0
 19 22  1  0  0  0  0
 22 23  1  0  0  0  0
 22 24  1  0  0  0  0
 22 25  1  0  0  0  0
 25 26  1  0  0  0  0
 26 27  2  0  0  0  0
 27 28  1  0  0  0  0
 28 29  2  0  0  0  0
 29 30  1  0  0  0  0
 29 31  1  0  0  0  0
 31 32  1  0  0  0  0
 31 33  2  0  0  0  0
 18 33  1  0  0  0  0
 26 33  1  0  0  0  0
 28 34  1  0  0  0  0
 27 35  1  0  0  0  0
 18 36  1  0  0  0  0
 15 37  1  0  0  0  0
 14 38  2  0  0  0  0
  2 38  1  0  0  0  0
 11 38  1  0  0  0  0
 13 39  1  0  0  0  0
  1 40  1  0  0  0  0
  1 41  1  0  0  0  0
  1 42  1  0  0  0  0
M  END
> <Potency>
25.9776427916361

> <pIC50>
4.585400259307254

> <Outcome>
Inactive

> <is_active>
0

$$$$

  Mrv1921 08232120312D          

 42 44  0  0  0  0            999 V2000
    3.5724   -1.2375    0.0000 C   0  0  0  0  0  0  0  0  0  0  0  0
    4.2868   -0.8250    0.0000 O   0  0  0  0  0  0  0  0  0  0  0  0
    4.2868    0.0000    0.0000 C   0  0  0  0  0  0  0  0  0  0  0  0
    3.5724    0.4125    0.0000 C   0  0  0  0  0  0  0  0  0  0  0  0
    2.8579    0.0000    0.0000 H   0  0  0  0  0  0  0  0  0  0  0  0
    3.5724    1.2375    0.0000 C   0  0  0  0  0  0  0  0  0  0  0  0
    2.8579    1.6500    0.0000 H   0  0  0  0  0  0  0  0  0  0  0  0
    4.2868    1.6500    0.0000 C   0  0  0  0  0  0  0  0  0  0  0  0
    4.2868    2.4750    0.0000 H   0  0  0  0  0  0  0  0  0  0  0  0
    5.0013    1.2375    0.0000 C   0  0  0  0  0  0  0  0  0  0  0  0
    5.7158    1.6500    0.0000 H   0  0  0  0  0  0  0  0  0  0  0  0
    5.0013    0.4125    0.0000 C   0  0  0  0  0  0  0  0  0  0  0  0
    5.7158    0.0000    0.0000 O   0  0  0  0  0  0  0  0  0  0  0  0
    6.4302    0.4125    0.0000 C   0  0  0  0  0  0  0  0  0  0  0  0
    7.1447    0.0000    0.0000 C   0  0  0  0  0  0  0  0  0  0  0  0
    7.8592    0.4125    0.0000 C   0  0  0  0  0  0  0  0  0  0  0  0
    7.8592    1.2375    0.0000 O   0  0  0  0  0  0  0  0  0  0  0  0
    8.5737    0.0000    0.0000 N   0  0  0  0  0  0  0  0  0  0  0  0
    9.2881    0.4125    0.0000 C   0  0  0  0  0  0  0  0  0  0  0  0
    9.2881    1.2375    0.0000 C   0  0  0  0  0  0  0  0  0  0  0  0
    8.5737    1.6500    0.0000 H   0  0  0  0  0  0  0  0  0  0  0  0
   10.0026    1.6500    0.0000 N   0  0  0  0  0  0  0  0  0  0  0  0
   10.7171    1.2375    0.0000 C   0  0  0  0  0  0  0  0  0  0  0  0
   11.4315    1.6500    0.0000 H   0  0  0  0  0  0  0  0  0  0  0  0
   10.7171    0.4125    0.0000 C   0  0  0  0  0  0  0  0  0  0  0  0
   11.4315    0.0000    0.0000 C   0  0  0  0  0  0  0  0  0  0  0  0
   11.4315   -0.8250    0.0000 C   0  0  0  0  0  0  0  0  0  0  0  0
   10.7171   -1.2375    0.0000 C   0  0  0  0  0  0  0  0  0  0  0  0
   10.0026   -0.8250    0.0000 C   0  0  0  0  0  0  0  0  0  0  0  0
    9.2881   -1.2375    0.0000 H   0  0  0  0  0  0  0  0  0  0  0  0
   10.0026    0.0000    0.0000 C   0  0  0  0  0  0  0  0  0  0  0  0
   10.7171   -2.0625    0.0000 H   0  0  0  0  0  0  0  0  0  0  0  0
   12.1460   -1.2375    0.0000 H   0  0  0  0  0  0  0  0  0  0  0  0
   12.1460    0.4125    0.0000 H   0  0  0  0  0  0  0  0  0  0  0  0
    8.5737   -0.8250    0.0000 H   0  0  0  0  0  0  0  0  0  0  0  0
    6.7745   -0.7372    0.0000 H   0  0  0  0  0  0  0  0  0  0  0  0
    7.5150   -0.7372    0.0000 H   0  0  0  0  0  0  0  0  0  0  0  0
    6.8005    1.1497    0.0000 H   0  0  0  0  0  0  0  0  0  0  0  0
    6.0600    1.1497    0.0000 H   0  0  0  0  0  0  0  0  0  0  0  0
    3.1599   -0.5230    0.0000 H   0  0  0  0  0  0  0  0  0  0  0  0
    2.8579   -1.6500    0.0000 H   0  0  0  0  0  0  0  0  0  0  0  0
    3.9849   -1.9520    0.0000 H   0  0  0  0  0  0  0  0  0  0  0  0
  1  2  1  0  0  0  0
  2  3  1  0  0  0  0
  3  4  2  0  0  0  0
  4  5  1  0  0  0  0
  4  6  1  0  0  0  0
  6  7  1  0  0  0  0
  6  8  2  0  0  0  0
  8  9  1  0  0  0  0
  8 10  1  0  0  0  0
 10 11  1  0  0  0  0
 10 12  2  0  0  0  0
  3 12  1  0  0  0  0
 12 13  1  0  0  0  0
 13 14  1  0  0  0  0
 14 15  1  0  0  0  0
 15 16  1  0  0  0  0
 16 17  2  0  0  0  0
 16 18  1  0  0  0  0
 18 19  1  0  0  0  0
 19 20  2  0  0  0  0
 20 21  1  0  0  0  0
 20 22  1  0  0  0  0
 22 23  2  0  0  0  0
 23 24  1  0  0  0  0
 23 25  1  0  0  0  0
 25 26  2  0  0  0  0
 26 27  1  0  0  0  0
 27 28  2  0  0  0  0
 28 29  1  0  0  0  0
 29 30  1  0  0  0  0
 29 31  2  0  0  0  0
 19 31  1  0  0  0  0
 25 31  1  0  0  0  0
 28 32  1  0  0  0  0
 27 33  1  0  0  0  0
 26 34  1  0  0  0  0
 18 35  1  0  0  0  0
 15 36  1  0  0  0  0
 15 37  1  0  0  0  0
 14 38  1  0  0  0  0
 14 39  1  0  0  0  0
  1 40  1  0  0  0  0
  1 41  1  0  0  0  0
  1 42  1  0  0  0  0
M  END
> <Potency>
96.4820045672596

> <pIC50>
4.01555368195086

> <Outcome>
Inactive

> <is_active>
0

$$$$

  Mrv1921 08232120312D          

 51 54  0  0  0  0            999 V2000
    0.0000   -7.4250    0.0000 C   0  0  0  0  0  0  0  0  0  0  0  0
    0.0000   -6.6000    0.0000 O   0  0  0  0  0  0  0  0  0  0  0  0
   -0.7145   -6.1875    0.0000 C   0  0  0  0  0  0  0  0  0  0  0  0
   -1.4289   -6.6000    0.0000 C   0  0  0  0  0  0  0  0  0  0  0  0
   -1.4289   -7.4250    0.0000 H   0  0  0  0  0  0  0  0  0  0  0  0
   -2.1434   -6.1875    0.0000 C   0  0  0  0  0  0  0  0  0  0  0  0
   -2.8579   -6.6000    0.0000 H   0  0  0  0  0  0  0  0  0  0  0  0
   -2.1434   -5.3625    0.0000 C   0  0  0  0  0  0  0  0  0  0  0  0
   -2.8579   -4.9500    0.0000 H   0  0  0  0  0  0  0  0  0  0  0  0
   -1.4289   -4.9500    0.0000 C   0  0  0  0  0  0  0  0  0  0  0  0
   -1.4289   -4.1250    0.0000 C   0  0  0  0  0  0  0  0  0  0  0  0
   -0.7145   -3.7125    0.0000 N   0  0  0  0  0  0  0  0  0  0  0  0
   -0.7145   -2.8875    0.0000 C   0  0  0  0  0  0  0  0  0  0  0  0
   -1.1678   -2.1982    0.0000 H   0  0  0  0  0  0  0  0  0  0  0  0
   -1.5381   -2.8395    0.0000 H   0  0  0  0  0  0  0  0  0  0  0  0
    0.0000   -2.4750    0.0000 C   0  0  0  0  0  0  0  0  0  0  0  0
    0.3703   -1.7378    0.0000 H   0  0  0  0  0  0  0  0  0  0  0  0
   -0.3703   -1.7378    0.0000 H   0  0  0  0  0  0  0  0  0  0  0  0
    0.7145   -2.8875    0.0000 N   0  0  0  0  0  0  0  0  0  0  0  0
    1.4289   -2.4750    0.0000 C   0  0  0  0  0  0  0  0  0  0  0  0
    2.1434   -2.8875    0.0000 O   0  0  0  0  0  0  0  0  0  0  0  0
    1.4289   -1.6500    0.0000 C   0  0  0  0  0  0  0  0  0  0  0  0
    0.7145   -1.2375    0.0000 C   0  0  0  0  0  0  0  0  0  0  0  0
   -0.0734   -0.9926    0.0000 H   0  0  0  0  0  0  0  0  0  0  0  0
    0.7145   -0.4125    0.0000 C   0  0  0  0  0  0  0  0  0  0  0  0
    0.0000    0.0000    0.0000 O   0  0  0  0  0  0  0  0  0  0  0  0
    1.4289    0.0000    0.0000 N   0  0  0  0  0  0  0  0  0  0  0  0
    1.4289    0.8250    0.0000 H   0  0  0  0  0  0  0  0  0  0  0  0
    2.1434   -0.4125    0.0000 C   0  0  0  0  0  0  0  0  0  0  0  0
    2.8579    0.0000    0.0000 C   0  0  0  0  0  0  0  0  0  0  0  0
    3.5724   -0.4125    0.0000 C   0  0  0  0  0  0  0  0  0  0  0  0
    3.5724   -1.2375    0.0000 C   0  0  0  0  0  0  0  0  0  0  0  0
    2.8579   -1.6500    0.0000 C   0  0  0  0  0  0  0  0  0  0  0  0
    2.8579   -2.4750    0.0000 H   0  0  0  0  0  0  0  0  0  0  0  0
    2.1434   -1.2375    0.0000 C   0  0  0  0  0  0  0  0  0  0  0  0
    4.2868   -1.6500    0.0000 H   0  0  0  0  0  0  0  0  0  0  0  0
    4.2868   -0.0000    0.0000 H   0  0  0  0  0  0  0  0  0  0  0  0
    2.8579    0.8250    0.0000 H   0  0  0  0  0  0  0  0  0  0  0  0
    0.7145   -3.7125    0.0000 C   0  0  0  0  0  0  0  0  0  0  0  0
    1.1678   -4.4018    0.0000 H   0  0  0  0  0  0  0  0  0  0  0  0
    1.5381   -3.7605    0.0000 H   0  0  0  0  0  0  0  0  0  0  0  0
    0.0000   -4.1250    0.0000 C   0  0  0  0  0  0  0  0  0  0  0  0
   -0.3703   -4.8622    0.0000 H   0  0  0  0  0  0  0  0  0  0  0  0
    0.3703   -4.8622    0.0000 H   0  0  0  0  0  0  0  0  0  0  0  0
   -1.8823   -3.4357    0.0000 H   0  0  0  0  0  0  0  0  0  0  0  0
   -2.2525   -4.0770    0.0000 H   0  0  0  0  0  0  0  0  0  0  0  0
   -0.7145   -5.3625    0.0000 C   0  0  0  0  0  0  0  0  0  0  0  0
    0.0734   -5.6074    0.0000 H   0  0  0  0  0  0  0  0  0  0  0  0
   -0.8250   -7.4250    0.0000 H   0  0  0  0  0  0  0  0  0  0  0  0
    0.0000   -8.2500    0.0000 H   0  0  0  0  0  0  0  0  0  0  0  0
    0.8250   -7.4250    0.0000 H   0  0  0  0  0  0  0  0  0  0  0  0
  1  2  1  0  0  0  0
  2  3  1  0  0  0  0
  3  4  2  0  0  0  0
  4  5  1  0  0  0  0
  4  6  1  0  0  0  0
  6  7  1  0  0  0  0
  6  8  2  0  0  0  0
  8  9  1  0  0  0  0
  8 10  1  0  0  0  0
 10 11  1  0  0  0  0
 11 12  1  0  0  0  0
 12 13  1  0  0  0  0
 13 14  1  0  0  0  0
 13 15  1  0  0  0  0
 13 16  1  0  0  0  0
 16 17  1  0  0  0  0
 16 18  1  0  0  0  0
 16 19  1  0  0  0  0
 19 20  1  0  0  0  0
 20 21  2  0  0  0  0
 20 22  1  0  0  0  0
 22 23  4  0  0  0  0
 23 24  1  0  0  0  0
 23 25  4  0  0  0  0
 25 26  2  0  0  0  0
 25 27  4  0  0  0  0
 27 28  1  0  0  0  0
 27 29  4  0  0  0  0
 29 30  4  0  0  0  0
 30 31  4  0  0  0  0
 31 32  4  0  0  0  0
 32 33  4  0  0  0  0
 33 34  1  0  0  0  0
 33 35  4  0  0  0  0
 22 35  4  0  0  0  0
 29 35  4  0  0  0  0
 32 36  1  0  0  0  0
 31 37  1  0  0  0  0
 30 38  1  0  0  0  0
 19 39  1  0  0  0  0
 39 40  1  0  0  0  0
 39 41  1  0  0  0  0
 39 42  1  0  0  0  0
 12 42  1  0  0  0  0
 42 43  1  0  0  0  0
 42 44  1  0  0  0  0
 11 45  1  0  0  0  0
 11 46  1  0  0  0  0
 10 47  2  0  0  0  0
  3 47  1  0  0  0  0
 47 48  1  0  0  0  0
  1 49  1  0  0  0  0
  1 50  1  0  0  0  0
  1 51  1  0  0  0  0
M  END
> <Potency>
27.3389013417572

> <pIC50>
4.563218942248063

> <Outcome>
Inactive

> <is_active>
0

$$$$

  Mrv1921 08232120312D          

 50 53  0  0  0  0            999 V2000
    2.1434   -2.8875    0.0000 O   0  0  0  0  0  0  0  0  0  0  0  0
    1.4289   -2.4750    0.0000 C   0  0  0  0  0  0  0  0  0  0  0  0
    1.4289   -1.6500    0.0000 C   0  0  0  0  0  0  0  0  0  0  0  0
    0.7145   -1.2375    0.0000 C   0  0  0  0  0  0  0  0  0  0  0  0
    0.0000   -1.6500    0.0000 H   0  0  0  0  0  0  0  0  0  0  0  0
    0.7145   -0.4125    0.0000 C   0  0  0  0  0  0  0  0  0  0  0  0
    0.0000    0.0000    0.0000 O   0  0  0  0  0  0  0  0  0  0  0  0
    1.4289    0.0000    0.0000 N   0  0  0  0  0  0  0  0  0  0  0  0
    1.4289    0.8250    0.0000 H   0  0  0  0  0  0  0  0  0  0  0  0
    2.1434   -0.4125    0.0000 C   0  0  0  0  0  0  0  0  0  0  0  0
    2.8579    0.0000    0.0000 C   0  0  0  0  0  0  0  0  0  0  0  0
    3.5724   -0.4125    0.0000 C   0  0  0  0  0  0  0  0  0  0  0  0
    3.5724   -1.2375    0.0000 C   0  0  0  0  0  0  0  0  0  0  0  0
    2.8579   -1.6500    0.0000 C   0  0  0  0  0  0  0  0  0  0  0  0
    2.8579   -2.4750    0.0000 H   0  0  0  0  0  0  0  0  0  0  0  0
    2.1434   -1.2375    0.0000 C   0  0  0  0  0  0  0  0  0  0  0  0
    4.2868   -1.6500    0.0000 H   0  0  0  0  0  0  0  0  0  0  0  0
    4.2868   -0.0000    0.0000 H   0  0  0  0  0  0  0  0  0  0  0  0
    2.8579    0.8250    0.0000 H   0  0  0  0  0  0  0  0  0  0  0  0
    0.7145   -2.8875    0.0000 N   0  0  0  0  0  0  0  0  0  0  0  0
    0.7145   -3.7125    0.0000 C   0  0  0  0  0  0  0  0  0  0  0  0
    1.1678   -4.4018    0.0000 H   0  0  0  0  0  0  0  0  0  0  0  0
    1.5381   -3.7605    0.0000 H   0  0  0  0  0  0  0  0  0  0  0  0
    0.0000   -4.1250    0.0000 C   0  0  0  0  0  0  0  0  0  0  0  0
   -0.3703   -4.8622    0.0000 H   0  0  0  0  0  0  0  0  0  0  0  0
    0.3703   -4.8622    0.0000 H   0  0  0  0  0  0  0  0  0  0  0  0
   -0.7145   -3.7125    0.0000 N   0  0  0  0  0  0  0  0  0  0  0  0
   -1.4289   -4.1250    0.0000 C   0  0  0  0  0  0  0  0  0  0  0  0
   -1.4289   -4.9500    0.0000 C   0  0  0  0  0  0  0  0  0  0  0  0
   -0.7145   -5.3625    0.0000 C   0  0  0  0  0  0  0  0  0  0  0  0
    0.0734   -5.6074    0.0000 H   0  0  0  0  0  0  0  0  0  0  0  0
   -0.7145   -6.1875    0.0000 C   0  0  0  0  0  0  0  0  0  0  0  0
    0.0000   -6.6000    0.0000 H   0  0  0  0  0  0  0  0  0  0  0  0
   -1.4289   -6.6000    0.0000 C   0  0  0  0  0  0  0  0  0  0  0  0
   -1.4289   -7.4250    0.0000 H   0  0  0  0  0  0  0  0  0  0  0  0
   -2.1434   -6.1875    0.0000 C   0  0  0  0  0  0  0  0  0  0  0  0
   -2.8579   -6.6000    0.0000 C   0  0  0  0  0  0  0  0  0  0  0  0
   -3.5724   -7.0125    0.0000 F   0  0  0  0  0  0  0  0  0  0  0  0
   -3.2704   -5.8855    0.0000 F   0  0  0  0  0  0  0  0  0  0  0  0
   -2.4454   -7.3145    0.0000 F   0  0  0  0  0  0  0  0  0  0  0  0
   -2.1434   -5.3625    0.0000 C   0  0  0  0  0  0  0  0  0  0  0  0
   -2.8579   -4.9500    0.0000 H   0  0  0  0  0  0  0  0  0  0  0  0
   -1.8823   -3.4357    0.0000 H   0  0  0  0  0  0  0  0  0  0  0  0
   -2.2525   -4.0770    0.0000 H   0  0  0  0  0  0  0  0  0  0  0  0
   -0.7145   -2.8875    0.0000 C   0  0  0  0  0  0  0  0  0  0  0  0
   -1.1678   -2.1982    0.0000 H   0  0  0  0  0  0  0  0  0  0  0  0
   -1.5381   -2.8395    0.0000 H   0  0  0  0  0  0  0  0  0  0  0  0
    0.0000   -2.4750    0.0000 C   0  0  0  0  0  0  0  0  0  0  0  0
    0.7145   -2.0625    0.0000 H   0  0  0  0  0  0  0  0  0  0  0  0
    0.0000   -3.3000    0.0000 H   0  0  0  0  0  0  0  0  0  0  0  0
  1  2  2  0  0  0  0
  2  3  1  0  0  0  0
  3  4  4  0  0  0  0
  4  5  1  0  0  0  0
  4  6  4  0  0  0  0
  6  7  2  0  0  0  0
  6  8  4  0  0  0  0
  8  9  1  0  0  0  0
  8 10  4  0  0  0  0
 10 11  4  0  0  0  0
 11 12  4  0  0  0  0
 12 13  4  0  0  0  0
 13 14  4  0  0  0  0
 14 15  1  0  0  0  0
 14 16  4  0  0  0  0
  3 16  4  0  0  0  0
 10 16  4  0  0  0  0
 13 17  1  0  0  0  0
 12 18  1  0  0  0  0
 11 19  1  0  0  0  0
  2 20  1  0  0  0  0
 20 21  1  0  0  0  0
 21 22  1  0  0  0  0
 21 23  1  0  0  0  0
 21 24  1  0  0  0  0
 24 25  1  0  0  0  0
 24 26  1  0  0  0  0
 24 27  1  0  0  0  0
 27 28  1  0  0  0  0
 28 29  1  0  0  0  0
 29 30  2  0  0  0  0
 30 31  1  0  0  0  0
 30 32  1  0  0  0  0
 32 33  1  0  0  0  0
 32 34  2  0  0  0  0
 34 35  1  0  0  0  0
 34 36  1  0  0  0  0
 36 37  1  0  0  0  0
 37 38  1  0  0  0  0
 37 39  1  0  0  0  0
 37 40  1  0  0  0  0
 36 41  2  0  0  0  0
 29 41  1  0  0  0  0
 41 42  1  0  0  0  0
 28 43  1  0  0  0  0
 28 44  1  0  0  0  0
 27 45  1  0  0  0  0
 45 46  1  0  0  0  0
 45 47  1  0  0  0  0
 45 48  1  0  0  0  0
 20 48  1  0  0  0  0
 48 49  1  0  0  0  0
 48 50  1  0  0  0  0
M  END
> <Potency>
34.1673366064665

> <pIC50>
4.466388873767718

> <Outcome>
Inactive

> <is_active>
0

$$$$

  Mrv1921 08232120312D          

 33 35  0  0  0  0            999 V2000
    0.0000   -2.4750    0.0000 O   0  0  0  0  0  0  0  0  0  0  0  0
    0.7145   -2.8875    0.0000 C   0  0  0  0  0  0  0  0  0  0  0  0
    0.7145   -3.7125    0.0000 C   0  0  0  0  0  0  0  0  0  0  0  0
    0.0000   -4.1250    0.0000 C   0  0  0  0  0  0  0  0  0  0  0  0
    0.0000   -4.9500    0.0000 C   0  0  0  0  0  0  0  0  0  0  0  0
    0.7145   -5.3625    0.0000 H   0  0  0  0  0  0  0  0  0  0  0  0
   -0.7145   -5.3625    0.0000 C   0  0  0  0  0  0  0  0  0  0  0  0
   -0.7145   -6.1875    0.0000 H   0  0  0  0  0  0  0  0  0  0  0  0
   -1.4289   -4.9500    0.0000 C   0  0  0  0  0  0  0  0  0  0  0  0
   -2.1434   -5.3625    0.0000 H   0  0  0  0  0  0  0  0  0  0  0  0
   -1.4289   -4.1250    0.0000 C   0  0  0  0  0  0  0  0  0  0  0  0
   -2.1434   -3.7125    0.0000 Cl  0  0  0  0  0  0  0  0  0  0  0  0
   -0.7145   -3.7125    0.0000 N   0  0  0  0  0  0  0  0  0  0  0  0
    1.1678   -4.4018    0.0000 H   0  0  0  0  0  0  0  0  0  0  0  0
    1.5381   -3.7605    0.0000 H   0  0  0  0  0  0  0  0  0  0  0  0
    1.4289   -2.4750    0.0000 N   0  0  0  0  0  0  0  0  0  0  0  0
    1.4289   -1.6500    0.0000 C   0  0  0  0  0  0  0  0  0  0  0  0
    0.7145   -1.2375    0.0000 C   0  0  0  0  0  0  0  0  0  0  0  0
    0.0000   -1.6500    0.0000 H   0  0  0  0  0  0  0  0  0  0  0  0
    0.7145   -0.4125    0.0000 N   0  0  0  0  0  0  0  0  0  0  0  0
    1.4289    0.0000    0.0000 C   0  0  0  0  0  0  0  0  0  0  0  0
    1.4289    0.8250    0.0000 H   0  0  0  0  0  0  0  0  0  0  0  0
    2.1434   -0.4125    0.0000 C   0  0  0  0  0  0  0  0  0  0  0  0
    2.8579    0.0000    0.0000 C   0  0  0  0  0  0  0  0  0  0  0  0
    3.5724   -0.4125    0.0000 C   0  0  0  0  0  0  0  0  0  0  0  0
    3.5724   -1.2375    0.0000 C   0  0  0  0  0  0  0  0  0  0  0  0
    2.8579   -1.6500    0.0000 C   0  0  0  0  0  0  0  0  0  0  0  0
    2.8579   -2.4750    0.0000 H   0  0  0  0  0  0  0  0  0  0  0  0
    2.1434   -1.2375    0.0000 C   0  0  0  0  0  0  0  0  0  0  0  0
    4.2868   -1.6500    0.0000 H   0  0  0  0  0  0  0  0  0  0  0  0
    4.2868   -0.0000    0.0000 H   0  0  0  0  0  0  0  0  0  0  0  0
    2.8579    0.8250    0.0000 H   0  0  0  0  0  0  0  0  0  0  0  0
    2.1434   -2.8875    0.0000 H   0  0  0  0  0  0  0  0  0  0  0  0
  1  2  2  0  0  0  0
  2  3  1  0  0  0  0
  3  4  1  0  0  0  0
  4  5  2  0  0  0  0
  5  6  1  0  0  0  0
  5  7  1  0  0  0  0
  7  8  1  0  0  0  0
  7  9  2  0  0  0  0
  9 10  1  0  0  0  0
  9 11  1  0  0  0  0
 11 12  1  0  0  0  0
 11 13  2  0  0  0  0
  4 13  1  0  0  0  0
  3 14  1  0  0  0  0
  3 15  1  0  0  0  0
  2 16  1  0  0  0  0
 16 17  1  0  0  0  0
 17 18  2  0  0  0  0
 18 19  1  0  0  0  0
 18 20  1  0  0  0  0
 20 21  2  0  0  0  0
 21 22  1  0  0  0  0
 21 23  1  0  0  0  0
 23 24  2  0  0  0  0
 24 25  1  0  0  0  0
 25 26  2  0  0  0  0
 26 27  1  0  0  0  0
 27 28  1  0  0  0  0
 27 29  2  0  0  0  0
 17 29  1  0  0  0  0
 23 29  1  0  0  0  0
 26 30  1  0  0  0  0
 25 31  1  0  0  0  0
 24 32  1  0  0  0  0
 16 33  1  0  0  0  0
M  END
> <Potency>
40.6503980473087

> <pIC50>
4.3909351974523645

> <Outcome>
Inactive

> <is_active>
0

$$$$

  Mrv1921 08232120312D          

 52 56  0  0  0  0            999 V2000
    0.0862   -2.1387    0.0000 O   0  0  0  0  0  0  0  0  0  0  0  0
    0.8986   -2.2820    0.0000 C   0  0  0  0  0  0  0  0  0  0  0  0
    1.1808   -3.0572    0.0000 N   0  0  0  0  0  0  0  0  0  0  0  0
    0.6505   -3.6892    0.0000 C   0  0  0  0  0  0  0  0  0  0  0  0
    0.9327   -4.4645    0.0000 C   0  0  0  0  0  0  0  0  0  0  0  0
    1.7451   -4.6077    0.0000 H   0  0  0  0  0  0  0  0  0  0  0  0
    0.4024   -5.0965    0.0000 N   0  0  0  0  0  0  0  0  0  0  0  0
   -0.4101   -4.9532    0.0000 C   0  0  0  0  0  0  0  0  0  0  0  0
   -0.9404   -5.5852    0.0000 H   0  0  0  0  0  0  0  0  0  0  0  0
   -0.6923   -4.1779    0.0000 C   0  0  0  0  0  0  0  0  0  0  0  0
   -1.5047   -4.0347    0.0000 C   0  0  0  0  0  0  0  0  0  0  0  0
   -1.7869   -3.2594    0.0000 C   0  0  0  0  0  0  0  0  0  0  0  0
   -1.2566   -2.6275    0.0000 C   0  0  0  0  0  0  0  0  0  0  0  0
   -0.4441   -2.7707    0.0000 C   0  0  0  0  0  0  0  0  0  0  0  0
    0.3683   -2.9140    0.0000 H   0  0  0  0  0  0  0  0  0  0  0  0
   -0.1620   -3.5460    0.0000 C   0  0  0  0  0  0  0  0  0  0  0  0
   -1.5388   -1.8522    0.0000 H   0  0  0  0  0  0  0  0  0  0  0  0
   -2.5994   -3.1162    0.0000 H   0  0  0  0  0  0  0  0  0  0  0  0
   -2.0350   -4.6667    0.0000 H   0  0  0  0  0  0  0  0  0  0  0  0
    1.9933   -3.2005    0.0000 H   0  0  0  0  0  0  0  0  0  0  0  0
    1.4289   -1.6500    0.0000 C   0  0  0  0  0  0  0  0  0  0  0  0
    1.9592   -2.2820    0.0000 C   0  0  0  0  0  0  0  0  0  0  0  0
    2.7717   -2.1387    0.0000 C   0  0  0  0  0  0  0  0  0  0  0  0
    3.3020   -2.7707    0.0000 C   0  0  0  0  0  0  0  0  0  0  0  0
    4.0773   -3.0529    0.0000 C   0  0  0  0  0  0  0  0  0  0  0  0
    4.8348   -3.3796    0.0000 H   0  0  0  0  0  0  0  0  0  0  0  0
    4.6773   -2.4867    0.0000 H   0  0  0  0  0  0  0  0  0  0  0  0
    3.4453   -3.5832    0.0000 C   0  0  0  0  0  0  0  0  0  0  0  0
    3.2726   -4.3899    0.0000 H   0  0  0  0  0  0  0  0  0  0  0  0
    3.9710   -4.2190    0.0000 H   0  0  0  0  0  0  0  0  0  0  0  0
    2.8288   -3.4465    0.0000 H   0  0  0  0  0  0  0  0  0  0  0  0
    3.5686   -1.9252    0.0000 H   0  0  0  0  0  0  0  0  0  0  0  0
    2.4895   -2.9140    0.0000 H   0  0  0  0  0  0  0  0  0  0  0  0
    1.1894   -2.5785    0.0000 H   0  0  0  0  0  0  0  0  0  0  0  0
    2.2414   -1.5067    0.0000 H   0  0  0  0  0  0  0  0  0  0  0  0
    0.7145   -1.2375    0.0000 C   0  0  0  0  0  0  0  0  0  0  0  0
   -0.1091   -1.2855    0.0000 H   0  0  0  0  0  0  0  0  0  0  0  0
    0.2611   -1.9268    0.0000 H   0  0  0  0  0  0  0  0  0  0  0  0
    0.7145   -0.4125    0.0000 C   0  0  0  0  0  0  0  0  0  0  0  0
    0.2611    0.2768    0.0000 H   0  0  0  0  0  0  0  0  0  0  0  0
   -0.1091   -0.3645    0.0000 H   0  0  0  0  0  0  0  0  0  0  0  0
    1.4289    0.0000    0.0000 O   0  0  0  0  0  0  0  0  0  0  0  0
    2.1434   -0.4125    0.0000 C   0  0  0  0  0  0  0  0  0  0  0  0
    2.8579    0.0000    0.0000 C   0  0  0  0  0  0  0  0  0  0  0  0
    3.5724   -0.4125    0.0000 C   0  0  0  0  0  0  0  0  0  0  0  0
    3.5724   -1.2375    0.0000 C   0  0  0  0  0  0  0  0  0  0  0  0
    4.2868   -1.6500    0.0000 Cl  0  0  0  0  0  0  0  0  0  0  0  0
    2.8579   -1.6500    0.0000 C   0  0  0  0  0  0  0  0  0  0  0  0
    2.8579   -0.8250    0.0000 H   0  0  0  0  0  0  0  0  0  0  0  0
    2.1434   -1.2375    0.0000 C   0  0  0  0  0  0  0  0  0  0  0  0
    4.2868   -0.0000    0.0000 H   0  0  0  0  0  0  0  0  0  0  0  0
    2.8579    0.8250    0.0000 H   0  0  0  0  0  0  0  0  0  0  0  0
  1  2  2  0  0  0  0
  2  3  1  0  0  0  0
  3  4  1  0  0  0  0
  4  5  2  0  0  0  0
  5  6  1  0  0  0  0
  5  7  1  0  0  0  0
  7  8  2  0  0  0  0
  8  9  1  0  0  0  0
  8 10  1  0  0  0  0
 10 11  2  0  0  0  0
 11 12  1  0  0  0  0
 12 13  2  0  0  0  0
 13 14  1  0  0  0  0
 14 15  1  0  0  0  0
 14 16  2  0  0  0  0
  4 16  1  0  0  0  0
 10 16  1  0  0  0  0
 13 17  1  0  0  0  0
 12 18  1  0  0  0  0
 11 19  1  0  0  0  0
  3 20  1  0  0  0  0
  2 21  1  0  0  0  0
 21 22  1  0  0  0  0
 22 23  1  0  0  0  0
 23 24  1  0  0  0  0
 24 25  1  0  0  0  0
 25 26  1  0  0  0  0
 25 27  1  0  0  0  0
 25 28  1  0  0  0  0
 24 28  1  0  0  0  0
 28 29  1  0  0  0  0
 28 30  1  0  0  0  0
 24 31  1  0  0  0  0
 23 32  1  0  0  0  0
 23 33  1  0  0  0  0
 22 34  1  0  0  0  0
 22 35  1  0  0  0  0
 21 36  1  0  0  0  0
 36 37  1  0  0  0  0
 36 38  1  0  0  0  0
 36 39  1  0  0  0  0
 39 40  1  0  0  0  0
 39 41  1  0  0  0  0
 39 42  1  0  0  0  0
 42 43  1  0  0  0  0
 43 44  2  0  0  0  0
 44 45  1  0  0  0  0
 45 46  2  0  0  0  0
 46 47  1  0  0  0  0
 46 48  1  0  0  0  0
 48 49  1  0  0  0  0
 48 50  2  0  0  0  0
 21 50  1  0  0  0  0
 43 50  1  0  0  0  0
 45 51  1  0  0  0  0
 44 52  1  0  0  0  0
M  END
> <Potency>
40.7111309604709

> <pIC50>
4.390286832696274

> <Outcome>
Inactive

> <is_active>
0

$$$$

  Mrv1921 08232120312D          

 46 48  0  0  0  0            999 V2000
    5.0013    1.2375    0.0000 C   0  0  0  0  0  0  0  0  0  0  0  0
    5.0013    2.0625    0.0000 C   0  0  0  0  0  0  0  0  0  0  0  0
    4.2868    2.4750    0.0000 C   0  0  0  0  0  0  0  0  0  0  0  0
    3.5724    2.0625    0.0000 C   0  0  0  0  0  0  0  0  0  0  0  0
    2.8579    2.4750    0.0000 C   0  0  0  0  0  0  0  0  0  0  0  0
    2.1042    2.1394    0.0000 C   0  0  0  0  0  0  0  0  0  0  0  0
    1.9327    1.3325    0.0000 H   0  0  0  0  0  0  0  0  0  0  0  0
    1.5522    2.7525    0.0000 C   0  0  0  0  0  0  0  0  0  0  0  0
    0.7317    2.6663    0.0000 H   0  0  0  0  0  0  0  0  0  0  0  0
    1.9647    3.4670    0.0000 C   0  0  0  0  0  0  0  0  0  0  0  0
    1.6291    4.2207    0.0000 H   0  0  0  0  0  0  0  0  0  0  0  0
    2.7716    3.2955    0.0000 O   0  0  0  0  0  0  0  0  0  0  0  0
    2.9404    1.5322    0.0000 H   0  0  0  0  0  0  0  0  0  0  0  0
    3.4291    1.2500    0.0000 H   0  0  0  0  0  0  0  0  0  0  0  0
    4.6571    3.2122    0.0000 H   0  0  0  0  0  0  0  0  0  0  0  0
    3.9166    3.2122    0.0000 H   0  0  0  0  0  0  0  0  0  0  0  0
    5.7158    2.4750    0.0000 N   0  0  0  0  0  0  0  0  0  0  0  0
    6.4302    2.0625    0.0000 C   0  0  0  0  0  0  0  0  0  0  0  0
    6.4302    1.2375    0.0000 O   0  0  0  0  0  0  0  0  0  0  0  0
    7.1447    2.4750    0.0000 N   0  0  0  0  0  0  0  0  0  0  0  0
    7.8592    2.0625    0.0000 C   0  0  0  0  0  0  0  0  0  0  0  0
    8.5737    2.4750    0.0000 C   0  0  0  0  0  0  0  0  0  0  0  0
    8.5737    3.3000    0.0000 H   0  0  0  0  0  0  0  0  0  0  0  0
    9.2881    2.0625    0.0000 N   0  0  0  0  0  0  0  0  0  0  0  0
   10.0026    2.4750    0.0000 C   0  0  0  0  0  0  0  0  0  0  0  0
   10.4151    1.7605    0.0000 H   0  0  0  0  0  0  0  0  0  0  0  0
   10.7171    2.8875    0.0000 H   0  0  0  0  0  0  0  0  0  0  0  0
    9.5901    3.1895    0.0000 H   0  0  0  0  0  0  0  0  0  0  0  0
    9.2881    1.2375    0.0000 C   0  0  0  0  0  0  0  0  0  0  0  0
   10.0026    0.8250    0.0000 O   0  0  0  0  0  0  0  0  0  0  0  0
    8.5737    0.8250    0.0000 C   0  0  0  0  0  0  0  0  0  0  0  0
    8.5737    0.0000    0.0000 C   0  0  0  0  0  0  0  0  0  0  0  0
    7.8592   -0.4125    0.0000 C   0  0  0  0  0  0  0  0  0  0  0  0
    7.1447    0.0000    0.0000 C   0  0  0  0  0  0  0  0  0  0  0  0
    7.1447    0.8250    0.0000 C   0  0  0  0  0  0  0  0  0  0  0  0
    7.1447    1.6500    0.0000 H   0  0  0  0  0  0  0  0  0  0  0  0
    7.8592    1.2375    0.0000 C   0  0  0  0  0  0  0  0  0  0  0  0
    6.4302   -0.4125    0.0000 H   0  0  0  0  0  0  0  0  0  0  0  0
    7.8592   -1.2375    0.0000 H   0  0  0  0  0  0  0  0  0  0  0  0
    9.2881   -0.4125    0.0000 H   0  0  0  0  0  0  0  0  0  0  0  0
    7.1447    3.3000    0.0000 H   0  0  0  0  0  0  0  0  0  0  0  0
    5.7158    3.3000    0.0000 H   0  0  0  0  0  0  0  0  0  0  0  0
    4.2868    1.6500    0.0000 H   0  0  0  0  0  0  0  0  0  0  0  0
    4.1763    1.2375    0.0000 H   0  0  0  0  0  0  0  0  0  0  0  0
    5.0013    0.4125    0.0000 H   0  0  0  0  0  0  0  0  0  0  0  0
    5.8263    1.2375    0.0000 H   0  0  0  0  0  0  0  0  0  0  0  0
  1  2  1  0  0  0  0
  2  3  1  0  0  0  0
  3  4  1  0  0  0  0
  4  5  1  0  0  0  0
  5  6  2  0  0  0  0
  6  7  1  0  0  0  0
  6  8  1  0  0  0  0
  8  9  1  0  0  0  0
  8 10  2  0  0  0  0
 10 11  1  0  0  0  0
 10 12  1  0  0  0  0
  5 12  1  0  0  0  0
  4 13  1  0  0  0  0
  4 14  1  0  0  0  0
  3 15  1  0  0  0  0
  3 16  1  0  0  0  0
  2 17  1  0  0  0  0
 17 18  1  0  0  0  0
 18 19  2  0  0  0  0
 18 20  1  0  0  0  0
 20 21  1  0  0  0  0
 21 22  4  0  0  0  0
 22 23  1  0  0  0  0
 22 24  4  0  0  0  0
 24 25  1  0  0  0  0
 25 26  1  0  0  0  0
 25 27  1  0  0  0  0
 25 28  1  0  0  0  0
 24 29  4  0  0  0  0
 29 30  2  0  0  0  0
 29 31  4  0  0  0  0
 31 32  4  0  0  0  0
 32 33  4  0  0  0  0
 33 34  4  0  0  0  0
 34 35  4  0  0  0  0
 35 36  1  0  0  0  0
 35 37  4  0  0  0  0
 21 37  4  0  0  0  0
 31 37  4  0  0  0  0
 34 38  1  0  0  0  0
 33 39  1  0  0  0  0
 32 40  1  0  0  0  0
 20 41  1  0  0  0  0
 17 42  1  0  0  0  0
  2 43  1  0  0  0  0
  1 44  1  0  0  0  0
  1 45  1  0  0  0  0
  1 46  1  0  0  0  0
M  END
> <Potency>
44.4815602697578

> <pIC50>
4.351819987508246

> <Outcome>
Inactive

> <is_active>
0

$$$$

  Mrv1921 08232120312D          

 46 48  0  0  0  0            999 V2000
   -2.8579    0.8250    0.0000 C   0  0  0  0  0  0  0  0  0  0  0  0
   -2.8579   -0.0000    0.0000 C   0  0  0  0  0  0  0  0  0  0  0  0
   -3.5724   -0.4125    0.0000 C   0  0  0  0  0  0  0  0  0  0  0  0
   -4.3476   -0.1303    0.0000 H   0  0  0  0  0  0  0  0  0  0  0  0
   -4.3476   -0.6947    0.0000 H   0  0  0  0  0  0  0  0  0  0  0  0
   -2.8579   -0.8250    0.0000 H   0  0  0  0  0  0  0  0  0  0  0  0
   -2.1434   -0.4125    0.0000 C   0  0  0  0  0  0  0  0  0  0  0  0
   -2.1434   -1.2375    0.0000 N   0  0  0  0  0  0  0  0  0  0  0  0
   -1.4289   -1.6500    0.0000 C   0  0  0  0  0  0  0  0  0  0  0  0
   -0.7145   -1.2375    0.0000 H   0  0  0  0  0  0  0  0  0  0  0  0
   -1.4289   -2.4750    0.0000 C   0  0  0  0  0  0  0  0  0  0  0  0
   -0.7145   -2.8875    0.0000 N   0  0  0  0  0  0  0  0  0  0  0  0
    0.0000   -2.4750    0.0000 C   0  0  0  0  0  0  0  0  0  0  0  0
    0.0000   -1.6500    0.0000 O   0  0  0  0  0  0  0  0  0  0  0  0
    0.7145   -2.8875    0.0000 N   0  0  0  0  0  0  0  0  0  0  0  0
    1.4289   -2.4750    0.0000 C   0  0  0  0  0  0  0  0  0  0  0  0
    2.1434   -2.8875    0.0000 C   0  0  0  0  0  0  0  0  0  0  0  0
    2.8971   -2.5519    0.0000 C   0  0  0  0  0  0  0  0  0  0  0  0
    3.0686   -1.7450    0.0000 H   0  0  0  0  0  0  0  0  0  0  0  0
    3.4491   -3.1650    0.0000 C   0  0  0  0  0  0  0  0  0  0  0  0
    4.2696   -3.0788    0.0000 H   0  0  0  0  0  0  0  0  0  0  0  0
    3.0366   -3.8795    0.0000 C   0  0  0  0  0  0  0  0  0  0  0  0
    3.3722   -4.6332    0.0000 H   0  0  0  0  0  0  0  0  0  0  0  0
    2.2296   -3.7080    0.0000 O   0  0  0  0  0  0  0  0  0  0  0  0
    1.7992   -1.7378    0.0000 H   0  0  0  0  0  0  0  0  0  0  0  0
    1.0587   -1.7378    0.0000 H   0  0  0  0  0  0  0  0  0  0  0  0
    0.7145   -3.7125    0.0000 H   0  0  0  0  0  0  0  0  0  0  0  0
   -0.7145   -3.7125    0.0000 H   0  0  0  0  0  0  0  0  0  0  0  0
   -2.1434   -2.8875    0.0000 C   0  0  0  0  0  0  0  0  0  0  0  0
   -2.1434   -3.7125    0.0000 C   0  0  0  0  0  0  0  0  0  0  0  0
   -2.8579   -4.1250    0.0000 C   0  0  0  0  0  0  0  0  0  0  0  0
   -3.5724   -3.7125    0.0000 C   0  0  0  0  0  0  0  0  0  0  0  0
   -3.5724   -2.8875    0.0000 C   0  0  0  0  0  0  0  0  0  0  0  0
   -4.2868   -2.4750    0.0000 H   0  0  0  0  0  0  0  0  0  0  0  0
   -2.8579   -2.4750    0.0000 C   0  0  0  0  0  0  0  0  0  0  0  0
   -2.8579   -1.6500    0.0000 C   0  0  0  0  0  0  0  0  0  0  0  0
   -3.5724   -1.2375    0.0000 O   0  0  0  0  0  0  0  0  0  0  0  0
   -4.2868   -4.1250    0.0000 H   0  0  0  0  0  0  0  0  0  0  0  0
   -2.8579   -4.9500    0.0000 H   0  0  0  0  0  0  0  0  0  0  0  0
   -1.4289   -4.1250    0.0000 H   0  0  0  0  0  0  0  0  0  0  0  0
   -1.3198   -0.3645    0.0000 H   0  0  0  0  0  0  0  0  0  0  0  0
   -1.6901    0.2768    0.0000 H   0  0  0  0  0  0  0  0  0  0  0  0
   -3.5724    0.4125    0.0000 H   0  0  0  0  0  0  0  0  0  0  0  0
   -2.0329    0.8250    0.0000 H   0  0  0  0  0  0  0  0  0  0  0  0
   -2.8579    1.6500    0.0000 H   0  0  0  0  0  0  0  0  0  0  0  0
   -3.6829    0.8250    0.0000 H   0  0  0  0  0  0  0  0  0  0  0  0
  1  2  1  0  0  0  0
  2  3  1  0  0  0  0
  3  4  1  0  0  0  0
  3  5  1  0  0  0  0
  3  6  1  0  0  0  0
  2  7  1  0  0  0  0
  7  8  1  0  0  0  0
  8  9  4  0  0  0  0
  9 10  1  0  0  0  0
  9 11  4  0  0  0  0
 11 12  1  0  0  0  0
 12 13  1  0  0  0  0
 13 14  2  0  0  0  0
 13 15  1  0  0  0  0
 15 16  1  0  0  0  0
 16 17  1  0  0  0  0
 17 18  2  0  0  0  0
 18 19  1  0  0  0  0
 18 20  1  0  0  0  0
 20 21  1  0  0  0  0
 20 22  2  0  0  0  0
 22 23  1  0  0  0  0
 22 24  1  0  0  0  0
 17 24  1  0  0  0  0
 16 25  1  0  0  0  0
 16 26  1  0  0  0  0
 15 27  1  0  0  0  0
 12 28  1  0  0  0  0
 11 29  4  0  0  0  0
 29 30  4  0  0  0  0
 30 31  4  0  0  0  0
 31 32  4  0  0  0  0
 32 33  4  0  0  0  0
 33 34  1  0  0  0  0
 33 35  4  0  0  0  0
 29 35  4  0  0  0  0
 35 36  4  0  0  0  0
  8 36  4  0  0  0  0
 36 37  2  0  0  0  0
 32 38  1  0  0  0  0
 31 39  1  0  0  0  0
 30 40  1  0  0  0  0
  7 41  1  0  0  0  0
  7 42  1  0  0  0  0
  2 43  1  0  0  0  0
  1 44  1  0  0  0  0
  1 45  1  0  0  0  0
  1 46  1  0  0  0  0
M  END
> <Potency>
29.6429810673398

> <pIC50>
4.528078123364962

> <Outcome>
Inactive

> <is_active>
0

$$$$

  Mrv1921 08232120312D          

 54 56  0  0  0  0            999 V2000
    4.0992    0.6900    0.0000 C   0  0  0  0  0  0  0  0  0  0  0  0
    3.4861    1.2420    0.0000 C   0  0  0  0  0  0  0  0  0  0  0  0
    2.6791    1.0705    0.0000 N   0  0  0  0  0  0  0  0  0  0  0  0
    2.2666    1.7850    0.0000 O   0  0  0  0  0  0  0  0  0  0  0  0
    2.8187    2.3981    0.0000 C   0  0  0  0  0  0  0  0  0  0  0  0
    2.6472    3.2050    0.0000 C   0  0  0  0  0  0  0  0  0  0  0  0
    3.4541    3.3766    0.0000 H   0  0  0  0  0  0  0  0  0  0  0  0
    2.4756    4.0120    0.0000 H   0  0  0  0  0  0  0  0  0  0  0  0
    1.8402    3.0335    0.0000 H   0  0  0  0  0  0  0  0  0  0  0  0
    3.5724    2.0625    0.0000 C   0  0  0  0  0  0  0  0  0  0  0  0
    4.2868    2.4750    0.0000 C   0  0  0  0  0  0  0  0  0  0  0  0
    5.0013    2.0625    0.0000 C   0  0  0  0  0  0  0  0  0  0  0  0
    5.7158    2.4750    0.0000 N   0  0  0  0  0  0  0  0  0  0  0  0
    6.4302    2.0625    0.0000 C   0  0  0  0  0  0  0  0  0  0  0  0
    6.4302    1.2375    0.0000 O   0  0  0  0  0  0  0  0  0  0  0  0
    7.1447    2.4750    0.0000 N   0  0  0  0  0  0  0  0  0  0  0  0
    7.8592    2.0625    0.0000 C   0  0  0  0  0  0  0  0  0  0  0  0
    8.5737    2.4750    0.0000 C   0  0  0  0  0  0  0  0  0  0  0  0
    8.5737    3.3000    0.0000 H   0  0  0  0  0  0  0  0  0  0  0  0
    9.2881    2.0625    0.0000 N   0  0  0  0  0  0  0  0  0  0  0  0
   10.0026    2.4750    0.0000 C   0  0  0  0  0  0  0  0  0  0  0  0
   10.7171    2.0625    0.0000 C   0  0  0  0  0  0  0  0  0  0  0  0
   11.4315    2.4750    0.0000 C   0  0  0  0  0  0  0  0  0  0  0  0
   11.6451    1.6781    0.0000 H   0  0  0  0  0  0  0  0  0  0  0  0
   12.2565    2.4750    0.0000 H   0  0  0  0  0  0  0  0  0  0  0  0
   11.6451    3.2719    0.0000 H   0  0  0  0  0  0  0  0  0  0  0  0
   10.7171    1.2375    0.0000 C   0  0  0  0  0  0  0  0  0  0  0  0
   10.7171    0.4125    0.0000 H   0  0  0  0  0  0  0  0  0  0  0  0
   11.4315    0.8250    0.0000 H   0  0  0  0  0  0  0  0  0  0  0  0
   11.4315    1.6500    0.0000 H   0  0  0  0  0  0  0  0  0  0  0  0
   10.7171    2.8875    0.0000 H   0  0  0  0  0  0  0  0  0  0  0  0
   10.3729    3.2122    0.0000 H   0  0  0  0  0  0  0  0  0  0  0  0
    9.6323    3.2122    0.0000 H   0  0  0  0  0  0  0  0  0  0  0  0
    9.2881    1.2375    0.0000 C   0  0  0  0  0  0  0  0  0  0  0  0
   10.0026    0.8250    0.0000 O   0  0  0  0  0  0  0  0  0  0  0  0
    8.5737    0.8250    0.0000 C   0  0  0  0  0  0  0  0  0  0  0  0
    8.5737    0.0000    0.0000 C   0  0  0  0  0  0  0  0  0  0  0  0
    7.8592   -0.4125    0.0000 C   0  0  0  0  0  0  0  0  0  0  0  0
    7.1447    0.0000    0.0000 C   0  0  0  0  0  0  0  0  0  0  0  0
    7.1447    0.8250    0.0000 C   0  0  0  0  0  0  0  0  0  0  0  0
    7.1447    1.6500    0.0000 H   0  0  0  0  0  0  0  0  0  0  0  0
    7.8592    1.2375    0.0000 C   0  0  0  0  0  0  0  0  0  0  0  0
    6.4302   -0.4125    0.0000 H   0  0  0  0  0  0  0  0  0  0  0  0
    7.8592   -1.2375    0.0000 H   0  0  0  0  0  0  0  0  0  0  0  0
    9.2881   -0.4125    0.0000 H   0  0  0  0  0  0  0  0  0  0  0  0
    7.1447    3.3000    0.0000 H   0  0  0  0  0  0  0  0  0  0  0  0
    6.1283    3.1895    0.0000 H   0  0  0  0  0  0  0  0  0  0  0  0
    5.6108    1.5065    0.0000 H   0  0  0  0  0  0  0  0  0  0  0  0
    5.0013    2.8875    0.0000 H   0  0  0  0  0  0  0  0  0  0  0  0
    4.6571    3.2122    0.0000 H   0  0  0  0  0  0  0  0  0  0  0  0
    3.9166    3.2122    0.0000 H   0  0  0  0  0  0  0  0  0  0  0  0
    3.5472    0.0769    0.0000 H   0  0  0  0  0  0  0  0  0  0  0  0
    4.7123    0.1380    0.0000 H   0  0  0  0  0  0  0  0  0  0  0  0
    4.6512    1.3031    0.0000 H   0  0  0  0  0  0  0  0  0  0  0  0
  1  2  1  0  0  0  0
  2  3  2  0  0  0  0
  3  4  1  0  0  0  0
  4  5  1  0  0  0  0
  5  6  1  0  0  0  0
  6  7  1  0  0  0  0
  6  8  1  0  0  0  0
  6  9  1  0  0  0  0
  5 10  2  0  0  0  0
  2 10  1  0  0  0  0
 10 11  1  0  0  0  0
 11 12  1  0  0  0  0
 12 13  1  0  0  0  0
 13 14  1  0  0  0  0
 14 15  2  0  0  0  0
 14 16  1  0  0  0  0
 16 17  1  0  0  0  0
 17 18  4  0  0  0  0
 18 19  1  0  0  0  0
 18 20  4  0  0  0  0
 20 21  1  0  0  0  0
 21 22  1  0  0  0  0
 22 23  1  0  0  0  0
 23 24  1  0  0  0  0
 23 25  1  0  0  0  0
 23 26  1  0  0  0  0
 22 27  1  0  0  0  0
 27 28  1  0  0  0  0
 27 29  1  0  0  0  0
 27 30  1  0  0  0  0
 22 31  1  0  0  0  0
 21 32  1  0  0  0  0
 21 33  1  0  0  0  0
 20 34  4  0  0  0  0
 34 35  2  0  0  0  0
 34 36  4  0  0  0  0
 36 37  4  0  0  0  0
 37 38  4  0  0  0  0
 38 39  4  0  0  0  0
 39 40  4  0  0  0  0
 40 41  1  0  0  0  0
 40 42  4  0  0  0  0
 17 42  4  0  0  0  0
 36 42  4  0  0  0  0
 39 43  1  0  0  0  0
 38 44  1  0  0  0  0
 37 45  1  0  0  0  0
 16 46  1  0  0  0  0
 13 47  1  0  0  0  0
 12 48  1  0  0  0  0
 12 49  1  0  0  0  0
 11 50  1  0  0  0  0
 11 51  1  0  0  0  0
  1 52  1  0  0  0  0
  1 53  1  0  0  0  0
  1 54  1  0  0  0  0
M  END
> <Potency>
27.6581201096714

> <pIC50>
4.5581773417155524

> <Outcome>
Inactive

> <is_active>
0

$$$$

  Mrv1921 08232120312D          

 49 52  0  0  0  0            999 V2000
   -3.6610   -4.5769    0.0000 C   0  0  0  0  0  0  0  0  0  0  0  0
   -3.4060   -3.7923    0.0000 N   0  0  0  0  0  0  0  0  0  0  0  0
   -3.9580   -3.1792    0.0000 C   0  0  0  0  0  0  0  0  0  0  0  0
   -3.3450   -2.6271    0.0000 H   0  0  0  0  0  0  0  0  0  0  0  0
   -4.5101   -2.5661    0.0000 H   0  0  0  0  0  0  0  0  0  0  0  0
   -4.5711   -3.7312    0.0000 H   0  0  0  0  0  0  0  0  0  0  0  0
   -2.5990   -3.6207    0.0000 C   0  0  0  0  0  0  0  0  0  0  0  0
   -2.3441   -2.8361    0.0000 C   0  0  0  0  0  0  0  0  0  0  0  0
   -2.8961   -2.2230    0.0000 H   0  0  0  0  0  0  0  0  0  0  0  0
   -1.5371   -2.6646    0.0000 C   0  0  0  0  0  0  0  0  0  0  0  0
   -1.2822   -1.8800    0.0000 H   0  0  0  0  0  0  0  0  0  0  0  0
   -0.9851   -3.2777    0.0000 C   0  0  0  0  0  0  0  0  0  0  0  0
   -0.1781   -3.1062    0.0000 N   0  0  0  0  0  0  0  0  0  0  0  0
    0.3739   -3.7192    0.0000 C   0  0  0  0  0  0  0  0  0  0  0  0
    0.1190   -4.5039    0.0000 C   0  0  0  0  0  0  0  0  0  0  0  0
    0.6039   -5.1713    0.0000 C   0  0  0  0  0  0  0  0  0  0  0  0
    1.4289   -5.1713    0.0000 H   0  0  0  0  0  0  0  0  0  0  0  0
    0.1190   -5.8387    0.0000 C   0  0  0  0  0  0  0  0  0  0  0  0
    0.3739   -6.6234    0.0000 H   0  0  0  0  0  0  0  0  0  0  0  0
   -0.6657   -5.5838    0.0000 N   0  0  0  0  0  0  0  0  0  0  0  0
   -0.6657   -4.7588    0.0000 N   0  0  0  0  0  0  0  0  0  0  0  0
   -1.4421   -5.0377    0.0000 H   0  0  0  0  0  0  0  0  0  0  0  0
    1.1720   -3.9281    0.0000 H   0  0  0  0  0  0  0  0  0  0  0  0
    1.0181   -3.2038    0.0000 H   0  0  0  0  0  0  0  0  0  0  0  0
    0.0768   -2.3215    0.0000 C   0  0  0  0  0  0  0  0  0  0  0  0
   -0.4752   -1.7084    0.0000 O   0  0  0  0  0  0  0  0  0  0  0  0
    0.8838   -2.1500    0.0000 C   0  0  0  0  0  0  0  0  0  0  0  0
    1.1387   -1.3654    0.0000 N   0  0  0  0  0  0  0  0  0  0  0  0
    0.6538   -0.6979    0.0000 N   0  0  0  0  0  0  0  0  0  0  0  0
    1.1387   -0.0305    0.0000 N   0  0  0  0  0  0  0  0  0  0  0  0
    1.9233   -0.2854    0.0000 C   0  0  0  0  0  0  0  0  0  0  0  0
    2.6378    0.1271    0.0000 C   0  0  0  0  0  0  0  0  0  0  0  0
    3.3523   -0.2854    0.0000 C   0  0  0  0  0  0  0  0  0  0  0  0
    3.3523   -1.1104    0.0000 C   0  0  0  0  0  0  0  0  0  0  0  0
    2.6378   -1.5229    0.0000 C   0  0  0  0  0  0  0  0  0  0  0  0
    2.6378   -2.3479    0.0000 H   0  0  0  0  0  0  0  0  0  0  0  0
    1.9233   -1.1104    0.0000 C   0  0  0  0  0  0  0  0  0  0  0  0
    4.0668   -1.5229    0.0000 H   0  0  0  0  0  0  0  0  0  0  0  0
    4.0668    0.1271    0.0000 H   0  0  0  0  0  0  0  0  0  0  0  0
    2.6378    0.9521    0.0000 H   0  0  0  0  0  0  0  0  0  0  0  0
    1.1019   -2.9456    0.0000 H   0  0  0  0  0  0  0  0  0  0  0  0
    1.6523   -2.4501    0.0000 H   0  0  0  0  0  0  0  0  0  0  0  0
   -1.2400   -4.0623    0.0000 C   0  0  0  0  0  0  0  0  0  0  0  0
   -1.5120   -4.8412    0.0000 H   0  0  0  0  0  0  0  0  0  0  0  0
   -2.0470   -4.2338    0.0000 C   0  0  0  0  0  0  0  0  0  0  0  0
   -2.6631   -4.7825    0.0000 H   0  0  0  0  0  0  0  0  0  0  0  0
   -4.4456   -4.3219    0.0000 H   0  0  0  0  0  0  0  0  0  0  0  0
   -3.9159   -5.3615    0.0000 H   0  0  0  0  0  0  0  0  0  0  0  0
   -2.8763   -4.8318    0.0000 H   0  0  0  0  0  0  0  0  0  0  0  0
  1  2  1  0  0  0  0
  2  3  1  0  0  0  0
  3  4  1  0  0  0  0
  3  5  1  0  0  0  0
  3  6  1  0  0  0  0
  2  7  1  0  0  0  0
  7  8  2  0  0  0  0
  8  9  1  0  0  0  0
  8 10  1  0  0  0  0
 10 11  1  0  0  0  0
 10 12  2  0  0  0  0
 12 13  1  0  0  0  0
 13 14  1  0  0  0  0
 14 15  1  0  0  0  0
 15 16  2  0  0  0  0
 16 17  1  0  0  0  0
 16 18  1  0  0  0  0
 18 19  1  0  0  0  0
 18 20  2  0  0  0  0
 20 21  1  0  0  0  0
 15 21  1  0  0  0  0
 21 22  1  0  0  0  0
 14 23  1  0  0  0  0
 14 24  1  0  0  0  0
 13 25  1  0  0  0  0
 25 26  2  0  0  0  0
 25 27  1  0  0  0  0
 27 28  1  0  0  0  0
 28 29  1  0  0  0  0
 29 30  2  0  0  0  0
 30 31  1  0  0  0  0
 31 32  2  0  0  0  0
 32 33  1  0  0  0  0
 33 34  2  0  0  0  0
 34 35  1  0  0  0  0
 35 36  1  0  0  0  0
 35 37  2  0  0  0  0
 28 37  1  0  0  0  0
 31 37  1  0  0  0  0
 34 38  1  0  0  0  0
 33 39  1  0  0  0  0
 32 40  1  0  0  0  0
 27 41  1  0  0  0  0
 27 42  1  0  0  0  0
 12 43  1  0  0  0  0
 43 44  1  0  0  0  0
 43 45  2  0  0  0  0
  7 45  1  0  0  0  0
 45 46  1  0  0  0  0
  1 47  1  0  0  0  0
  1 48  1  0  0  0  0
  1 49  1  0  0  0  0
M  END
> <Potency>
15.9360966541782

> <pIC50>
4.79761804486861

> <Outcome>
Inactive

> <is_active>
0

$$$$

  Mrv1921 08232120312D          

 43 45  0  0  0  0            999 V2000
   -2.8579   -4.1250    0.0000 C   0  0  0  0  0  0  0  0  0  0  0  0
   -2.8579   -4.9500    0.0000 C   0  0  0  0  0  0  0  0  0  0  0  0
   -2.1904   -5.4349    0.0000 N   0  0  0  0  0  0  0  0  0  0  0  0
   -2.4454   -6.2195    0.0000 O   0  0  0  0  0  0  0  0  0  0  0  0
   -3.2704   -6.2195    0.0000 C   0  0  0  0  0  0  0  0  0  0  0  0
   -3.7553   -6.8870    0.0000 C   0  0  0  0  0  0  0  0  0  0  0  0
   -4.5758   -6.8007    0.0000 O   0  0  0  0  0  0  0  0  0  0  0  0
   -5.0607   -7.4682    0.0000 C   0  0  0  0  0  0  0  0  0  0  0  0
   -4.7252   -8.2219    0.0000 C   0  0  0  0  0  0  0  0  0  0  0  0
   -3.9047   -8.3081    0.0000 H   0  0  0  0  0  0  0  0  0  0  0  0
   -5.2101   -8.8893    0.0000 C   0  0  0  0  0  0  0  0  0  0  0  0
   -4.8745   -9.6430    0.0000 Cl  0  0  0  0  0  0  0  0  0  0  0  0
   -6.0306   -8.8031    0.0000 C   0  0  0  0  0  0  0  0  0  0  0  0
   -6.5155   -9.4705    0.0000 H   0  0  0  0  0  0  0  0  0  0  0  0
   -6.3661   -8.0494    0.0000 C   0  0  0  0  0  0  0  0  0  0  0  0
   -7.1866   -7.9632    0.0000 C   0  0  0  0  0  0  0  0  0  0  0  0
   -7.5222   -7.2095    0.0000 C   0  0  0  0  0  0  0  0  0  0  0  0
   -7.0372   -6.5420    0.0000 O   0  0  0  0  0  0  0  0  0  0  0  0
   -8.3426   -7.1232    0.0000 N   0  0  0  0  0  0  0  0  0  0  0  0
   -8.8276   -7.7907    0.0000 C   0  0  0  0  0  0  0  0  0  0  0  0
   -8.4920   -8.5444    0.0000 C   0  0  0  0  0  0  0  0  0  0  0  0
   -7.9986   -9.2055    0.0000 H   0  0  0  0  0  0  0  0  0  0  0  0
   -8.9769   -9.2118    0.0000 N   0  0  0  0  0  0  0  0  0  0  0  0
   -9.7974   -9.1256    0.0000 C   0  0  0  0  0  0  0  0  0  0  0  0
  -10.2823   -9.7930    0.0000 H   0  0  0  0  0  0  0  0  0  0  0  0
  -10.1330   -8.3719    0.0000 C   0  0  0  0  0  0  0  0  0  0  0  0
  -10.9534   -8.2856    0.0000 H   0  0  0  0  0  0  0  0  0  0  0  0
   -9.6480   -7.7044    0.0000 C   0  0  0  0  0  0  0  0  0  0  0  0
   -9.9836   -6.9508    0.0000 C   0  0  0  0  0  0  0  0  0  0  0  0
   -9.2299   -6.6152    0.0000 H   0  0  0  0  0  0  0  0  0  0  0  0
  -10.3192   -6.1971    0.0000 H   0  0  0  0  0  0  0  0  0  0  0  0
  -10.7373   -7.2863    0.0000 H   0  0  0  0  0  0  0  0  0  0  0  0
   -8.6782   -6.3696    0.0000 H   0  0  0  0  0  0  0  0  0  0  0  0
   -7.9195   -8.3420    0.0000 H   0  0  0  0  0  0  0  0  0  0  0  0
   -7.3204   -8.7772    0.0000 H   0  0  0  0  0  0  0  0  0  0  0  0
   -5.8812   -7.3820    0.0000 C   0  0  0  0  0  0  0  0  0  0  0  0
   -6.2167   -6.6283    0.0000 H   0  0  0  0  0  0  0  0  0  0  0  0
   -3.7937   -7.7111    0.0000 H   0  0  0  0  0  0  0  0  0  0  0  0
   -3.1172   -7.4099    0.0000 H   0  0  0  0  0  0  0  0  0  0  0  0
   -3.5253   -5.4349    0.0000 N   0  0  0  0  0  0  0  0  0  0  0  0
   -2.0329   -4.1250    0.0000 H   0  0  0  0  0  0  0  0  0  0  0  0
   -2.8579   -3.3000    0.0000 H   0  0  0  0  0  0  0  0  0  0  0  0
   -3.6829   -4.1250    0.0000 H   0  0  0  0  0  0  0  0  0  0  0  0
  1  2  1  0  0  0  0
  2  3  2  0  0  0  0
  3  4  1  0  0  0  0
  4  5  1  0  0  0  0
  5  6  1  0  0  0  0
  6  7  1  0  0  0  0
  7  8  1  0  0  0  0
  8  9  2  0  0  0  0
  9 10  1  0  0  0  0
  9 11  1  0  0  0  0
 11 12  1  0  0  0  0
 11 13  2  0  0  0  0
 13 14  1  0  0  0  0
 13 15  1  0  0  0  0
 15 16  1  0  0  0  0
 16 17  1  0  0  0  0
 17 18  2  0  0  0  0
 17 19  1  0  0  0  0
 19 20  1  0  0  0  0
 20 21  2  0  0  0  0
 21 22  1  0  0  0  0
 21 23  1  0  0  0  0
 23 24  2  0  0  0  0
 24 25  1  0  0  0  0
 24 26  1  0  0  0  0
 26 27  1  0  0  0  0
 26 28  2  0  0  0  0
 20 28  1  0  0  0  0
 28 29  1  0  0  0  0
 29 30  1  0  0  0  0
 29 31  1  0  0  0  0
 29 32  1  0  0  0  0
 19 33  1  0  0  0  0
 16 34  1  0  0  0  0
 16 35  1  0  0  0  0
 15 36  2  0  0  0  0
  8 36  1  0  0  0  0
 36 37  1  0  0  0  0
  6 38  1  0  0  0  0
  6 39  1  0  0  0  0
  5 40  2  0  0  0  0
  2 40  1  0  0  0  0
  1 41  1  0  0  0  0
  1 42  1  0  0  0  0
  1 43  1  0  0  0  0
M  END
> <Potency>
23.9245321229901

> <pIC50>
4.621156546691786

> <Outcome>
Inactive

> <is_active>
0

$$$$

  Mrv1921 08232120312D          

 56 59  0  0  0  0            999 V2000
   -2.1434    4.5375    0.0000 C   0  0  0  0  0  0  0  0  0  0  0  0
   -1.4289    4.9500    0.0000 C   0  0  0  0  0  0  0  0  0  0  0  0
   -1.4289    5.7750    0.0000 C   0  0  0  0  0  0  0  0  0  0  0  0
   -2.1434    6.1875    0.0000 H   0  0  0  0  0  0  0  0  0  0  0  0
   -0.7145    6.1875    0.0000 C   0  0  0  0  0  0  0  0  0  0  0  0
   -0.7145    7.0125    0.0000 H   0  0  0  0  0  0  0  0  0  0  0  0
    0.0000    5.7750    0.0000 N   0  0  0  0  0  0  0  0  0  0  0  0
    0.0000    4.9500    0.0000 C   0  0  0  0  0  0  0  0  0  0  0  0
    0.7145    4.5375    0.0000 H   0  0  0  0  0  0  0  0  0  0  0  0
   -0.7145    4.5375    0.0000 C   0  0  0  0  0  0  0  0  0  0  0  0
   -0.7145    3.7125    0.0000 N   0  0  0  0  0  0  0  0  0  0  0  0
    0.0000    3.3000    0.0000 C   0  0  0  0  0  0  0  0  0  0  0  0
    0.7145    3.7125    0.0000 O   0  0  0  0  0  0  0  0  0  0  0  0
    0.0000    2.4750    0.0000 C   0  0  0  0  0  0  0  0  0  0  0  0
    0.7145    2.0625    0.0000 C   0  0  0  0  0  0  0  0  0  0  0  0
    1.4289    2.4750    0.0000 C   0  0  0  0  0  0  0  0  0  0  0  0
    1.4289    3.3000    0.0000 H   0  0  0  0  0  0  0  0  0  0  0  0
    2.1434    2.0625    0.0000 C   0  0  0  0  0  0  0  0  0  0  0  0
    2.8579    2.4750    0.0000 Cl  0  0  0  0  0  0  0  0  0  0  0  0
    2.1434    1.2375    0.0000 C   0  0  0  0  0  0  0  0  0  0  0  0
    2.8579    0.8250    0.0000 H   0  0  0  0  0  0  0  0  0  0  0  0
    1.4289    0.8250    0.0000 C   0  0  0  0  0  0  0  0  0  0  0  0
    1.4289   -0.0000    0.0000 O   0  0  0  0  0  0  0  0  0  0  0  0
    0.7145   -0.4125    0.0000 C   0  0  0  0  0  0  0  0  0  0  0  0
    0.7145   -1.2375    0.0000 C   0  0  0  0  0  0  0  0  0  0  0  0
    1.3819   -1.7224    0.0000 N   0  0  0  0  0  0  0  0  0  0  0  0
    1.1270   -2.5070    0.0000 N   0  0  0  0  0  0  0  0  0  0  0  0
    0.3020   -2.5070    0.0000 C   0  0  0  0  0  0  0  0  0  0  0  0
   -0.1830   -3.1745    0.0000 C   0  0  0  0  0  0  0  0  0  0  0  0
    0.1526   -3.9282    0.0000 C   0  0  0  0  0  0  0  0  0  0  0  0
    0.8471   -4.3735    0.0000 H   0  0  0  0  0  0  0  0  0  0  0  0
    0.9245   -3.6370    0.0000 H   0  0  0  0  0  0  0  0  0  0  0  0
   -0.3323   -4.5956    0.0000 C   0  0  0  0  0  0  0  0  0  0  0  0
   -0.3707   -5.4197    0.0000 H   0  0  0  0  0  0  0  0  0  0  0  0
    0.3058   -5.1185    0.0000 H   0  0  0  0  0  0  0  0  0  0  0  0
   -1.1528   -4.5094    0.0000 C   0  0  0  0  0  0  0  0  0  0  0  0
   -1.8857   -4.8882    0.0000 H   0  0  0  0  0  0  0  0  0  0  0  0
   -1.2866   -5.3234    0.0000 H   0  0  0  0  0  0  0  0  0  0  0  0
   -1.4884   -3.7557    0.0000 C   0  0  0  0  0  0  0  0  0  0  0  0
   -2.1829   -3.3104    0.0000 H   0  0  0  0  0  0  0  0  0  0  0  0
   -2.2603   -4.0469    0.0000 H   0  0  0  0  0  0  0  0  0  0  0  0
   -1.0034   -3.0882    0.0000 C   0  0  0  0  0  0  0  0  0  0  0  0
   -1.4648   -2.4043    0.0000 H   0  0  0  0  0  0  0  0  0  0  0  0
   -1.7965   -2.8608    0.0000 H   0  0  0  0  0  0  0  0  0  0  0  0
   -0.5185   -2.4208    0.0000 H   0  0  0  0  0  0  0  0  0  0  0  0
    0.0470   -1.7224    0.0000 O   0  0  0  0  0  0  0  0  0  0  0  0
    0.2611    0.2768    0.0000 H   0  0  0  0  0  0  0  0  0  0  0  0
   -0.1091   -0.3645    0.0000 H   0  0  0  0  0  0  0  0  0  0  0  0
    0.7145    1.2375    0.0000 C   0  0  0  0  0  0  0  0  0  0  0  0
    0.0000    0.8250    0.0000 H   0  0  0  0  0  0  0  0  0  0  0  0
   -0.8236    2.4270    0.0000 H   0  0  0  0  0  0  0  0  0  0  0  0
   -0.4533    1.7857    0.0000 H   0  0  0  0  0  0  0  0  0  0  0  0
   -1.4289    3.3000    0.0000 H   0  0  0  0  0  0  0  0  0  0  0  0
   -2.5559    5.2520    0.0000 H   0  0  0  0  0  0  0  0  0  0  0  0
   -2.8579    4.1250    0.0000 H   0  0  0  0  0  0  0  0  0  0  0  0
   -1.7309    3.8230    0.0000 H   0  0  0  0  0  0  0  0  0  0  0  0
  1  2  1  0  0  0  0
  2  3  2  0  0  0  0
  3  4  1  0  0  0  0
  3  5  1  0  0  0  0
  5  6  1  0  0  0  0
  5  7  2  0  0  0  0
  7  8  1  0  0  0  0
  8  9  1  0  0  0  0
  8 10  2  0  0  0  0
  2 10  1  0  0  0  0
 10 11  1  0  0  0  0
 11 12  1  0  0  0  0
 12 13  2  0  0  0  0
 12 14  1  0  0  0  0
 14 15  1  0  0  0  0
 15 16  2  0  0  0  0
 16 17  1  0  0  0  0
 16 18  1  0  0  0  0
 18 19  1  0  0  0  0
 18 20  2  0  0  0  0
 20 21  1  0  0  0  0
 20 22  1  0  0  0  0
 22 23  1  0  0  0  0
 23 24  1  0  0  0  0
 24 25  1  0  0  0  0
 25 26  2  0  0  0  0
 26 27  1  0  0  0  0
 27 28  2  0  0  0  0
 28 29  1  0  0  0  0
 29 30  1  0  0  0  0
 30 31  1  0  0  0  0
 30 32  1  0  0  0  0
 30 33  1  0  0  0  0
 33 34  1  0  0  0  0
 33 35  1  0  0  0  0
 33 36  1  0  0  0  0
 36 37  1  0  0  0  0
 36 38  1  0  0  0  0
 36 39  1  0  0  0  0
 39 40  1  0  0  0  0
 39 41  1  0  0  0  0
 39 42  1  0  0  0  0
 29 42  1  0  0  0  0
 42 43  1  0  0  0  0
 42 44  1  0  0  0  0
 29 45  1  0  0  0  0
 28 46  1  0  0  0  0
 25 46  1  0  0  0  0
 24 47  1  0  0  0  0
 24 48  1  0  0  0  0
 22 49  2  0  0  0  0
 15 49  1  0  0  0  0
 49 50  1  0  0  0  0
 14 51  1  0  0  0  0
 14 52  1  0  0  0  0
 11 53  1  0  0  0  0
  1 54  1  0  0  0  0
  1 55  1  0  0  0  0
  1 56  1  0  0  0  0
M  END
> <Potency>
20.6463997946966

> <pIC50>
4.685155667281701

> <Outcome>
Inactive

> <is_active>
0

$$$$

  Mrv1921 08232120312D          

 55 58  0  0  0  0            999 V2000
   -3.5724   -1.2375    0.0000 C   0  0  0  0  0  0  0  0  0  0  0  0
   -2.8579   -1.6500    0.0000 O   0  0  0  0  0  0  0  0  0  0  0  0
   -2.8579   -2.4750    0.0000 C   0  0  0  0  0  0  0  0  0  0  0  0
   -2.1434   -2.8875    0.0000 C   0  0  0  0  0  0  0  0  0  0  0  0
   -1.4289   -2.4750    0.0000 H   0  0  0  0  0  0  0  0  0  0  0  0
   -2.1434   -3.7125    0.0000 C   0  0  0  0  0  0  0  0  0  0  0  0
   -1.4289   -4.1250    0.0000 H   0  0  0  0  0  0  0  0  0  0  0  0
   -2.8579   -4.1250    0.0000 C   0  0  0  0  0  0  0  0  0  0  0  0
   -2.8579   -4.9500    0.0000 C   0  0  0  0  0  0  0  0  0  0  0  0
   -2.1904   -5.4349    0.0000 C   0  0  0  0  0  0  0  0  0  0  0  0
   -1.4058   -5.1800    0.0000 H   0  0  0  0  0  0  0  0  0  0  0  0
   -2.4454   -6.2195    0.0000 C   0  0  0  0  0  0  0  0  0  0  0  0
   -1.9605   -6.8870    0.0000 C   0  0  0  0  0  0  0  0  0  0  0  0
   -2.2960   -7.6407    0.0000 O   0  0  0  0  0  0  0  0  0  0  0  0
   -1.8111   -8.3081    0.0000 C   0  0  0  0  0  0  0  0  0  0  0  0
   -0.9906   -8.2219    0.0000 C   0  0  0  0  0  0  0  0  0  0  0  0
   -0.6551   -7.4682    0.0000 H   0  0  0  0  0  0  0  0  0  0  0  0
   -0.5057   -8.8893    0.0000 C   0  0  0  0  0  0  0  0  0  0  0  0
    0.3148   -8.8031    0.0000 Cl  0  0  0  0  0  0  0  0  0  0  0  0
   -0.8413   -9.6430    0.0000 C   0  0  0  0  0  0  0  0  0  0  0  0
   -0.3563  -10.3104    0.0000 H   0  0  0  0  0  0  0  0  0  0  0  0
   -1.6617   -9.7292    0.0000 C   0  0  0  0  0  0  0  0  0  0  0  0
   -1.9973  -10.4829    0.0000 C   0  0  0  0  0  0  0  0  0  0  0  0
   -2.8178  -10.5691    0.0000 C   0  0  0  0  0  0  0  0  0  0  0  0
   -3.3027   -9.9017    0.0000 O   0  0  0  0  0  0  0  0  0  0  0  0
   -3.1533  -11.3228    0.0000 N   0  0  0  0  0  0  0  0  0  0  0  0
   -2.6684  -11.9902    0.0000 C   0  0  0  0  0  0  0  0  0  0  0  0
   -1.8479  -11.9040    0.0000 C   0  0  0  0  0  0  0  0  0  0  0  0
   -1.0666  -11.6390    0.0000 H   0  0  0  0  0  0  0  0  0  0  0  0
   -1.3630  -12.5714    0.0000 N   0  0  0  0  0  0  0  0  0  0  0  0
   -1.6986  -13.3251    0.0000 C   0  0  0  0  0  0  0  0  0  0  0  0
   -1.2136  -13.9926    0.0000 H   0  0  0  0  0  0  0  0  0  0  0  0
   -2.5190  -13.4114    0.0000 C   0  0  0  0  0  0  0  0  0  0  0  0
   -2.8546  -14.1650    0.0000 H   0  0  0  0  0  0  0  0  0  0  0  0
   -3.0040  -12.7439    0.0000 C   0  0  0  0  0  0  0  0  0  0  0  0
   -3.8244  -12.8301    0.0000 C   0  0  0  0  0  0  0  0  0  0  0  0
   -3.9107  -12.0097    0.0000 H   0  0  0  0  0  0  0  0  0  0  0  0
   -4.6449  -12.9164    0.0000 H   0  0  0  0  0  0  0  0  0  0  0  0
   -3.7382  -13.6506    0.0000 H   0  0  0  0  0  0  0  0  0  0  0  0
   -3.9738  -11.4090    0.0000 H   0  0  0  0  0  0  0  0  0  0  0  0
   -1.8635  -11.2970    0.0000 H   0  0  0  0  0  0  0  0  0  0  0  0
   -1.2644  -10.8617    0.0000 H   0  0  0  0  0  0  0  0  0  0  0  0
   -2.1467   -9.0618    0.0000 C   0  0  0  0  0  0  0  0  0  0  0  0
   -2.9671   -9.1480    0.0000 H   0  0  0  0  0  0  0  0  0  0  0  0
   -1.1886   -7.1782    0.0000 H   0  0  0  0  0  0  0  0  0  0  0  0
   -1.2660   -6.4417    0.0000 H   0  0  0  0  0  0  0  0  0  0  0  0
   -3.2704   -6.2195    0.0000 O   0  0  0  0  0  0  0  0  0  0  0  0
   -3.5253   -5.4349    0.0000 N   0  0  0  0  0  0  0  0  0  0  0  0
   -3.5724   -3.7125    0.0000 C   0  0  0  0  0  0  0  0  0  0  0  0
   -4.2868   -4.1250    0.0000 H   0  0  0  0  0  0  0  0  0  0  0  0
   -3.5724   -2.8875    0.0000 C   0  0  0  0  0  0  0  0  0  0  0  0
   -4.2868   -2.4750    0.0000 H   0  0  0  0  0  0  0  0  0  0  0  0
   -3.1599   -0.5230    0.0000 H   0  0  0  0  0  0  0  0  0  0  0  0
   -4.2868   -0.8250    0.0000 H   0  0  0  0  0  0  0  0  0  0  0  0
   -3.9849   -1.9520    0.0000 H   0  0  0  0  0  0  0  0  0  0  0  0
  1  2  1  0  0  0  0
  2  3  1  0  0  0  0
  3  4  2  0  0  0  0
  4  5  1  0  0  0  0
  4  6  1  0  0  0  0
  6  7  1  0  0  0  0
  6  8  2  0  0  0  0
  8  9  1  0  0  0  0
  9 10  1  0  0  0  0
 10 11  1  0  0  0  0
 10 12  2  0  0  0  0
 12 13  1  0  0  0  0
 13 14  1  0  0  0  0
 14 15  1  0  0  0  0
 15 16  2  0  0  0  0
 16 17  1  0  0  0  0
 16 18  1  0  0  0  0
 18 19  1  0  0  0  0
 18 20  2  0  0  0  0
 20 21  1  0  0  0  0
 20 22  1  0  0  0  0
 22 23  1  0  0  0  0
 23 24  1  0  0  0  0
 24 25  2  0  0  0  0
 24 26  1  0  0  0  0
 26 27  1  0  0  0  0
 27 28  2  0  0  0  0
 28 29  1  0  0  0  0
 28 30  1  0  0  0  0
 30 31  2  0  0  0  0
 31 32  1  0  0  0  0
 31 33  1  0  0  0  0
 33 34  1  0  0  0  0
 33 35  2  0  0  0  0
 27 35  1  0  0  0  0
 35 36  1  0  0  0  0
 36 37  1  0  0  0  0
 36 38  1  0  0  0  0
 36 39  1  0  0  0  0
 26 40  1  0  0  0  0
 23 41  1  0  0  0  0
 23 42  1  0  0  0  0
 22 43  2  0  0  0  0
 15 43  1  0  0  0  0
 43 44  1  0  0  0  0
 13 45  1  0  0  0  0
 13 46  1  0  0  0  0
 12 47  1  0  0  0  0
 47 48  1  0  0  0  0
  9 48  2  0  0  0  0
  8 49  1  0  0  0  0
 49 50  1  0  0  0  0
 49 51  2  0  0  0  0
  3 51  1  0  0  0  0
 51 52  1  0  0  0  0
  1 53  1  0  0  0  0
  1 54  1  0  0  0  0
  1 55  1  0  0  0  0
M  END
> <Potency>
71.4886533715913

> <pIC50>
4.1457628836416065

> <Outcome>
Inactive

> <is_active>
0

$$$$

  Mrv1921 08232120312D          

 50 53  0  0  0  0            999 V2000
   -4.7229   -5.5330    0.0000 C   0  0  0  0  0  0  0  0  0  0  0  0
   -4.4679   -4.7484    0.0000 C   0  0  0  0  0  0  0  0  0  0  0  0
   -3.6610   -4.5769    0.0000 C   0  0  0  0  0  0  0  0  0  0  0  0
   -3.1089   -5.1900    0.0000 O   0  0  0  0  0  0  0  0  0  0  0  0
   -3.4060   -3.7923    0.0000 N   0  0  0  0  0  0  0  0  0  0  0  0
   -2.5990   -3.6207    0.0000 C   0  0  0  0  0  0  0  0  0  0  0  0
   -2.3441   -2.8361    0.0000 C   0  0  0  0  0  0  0  0  0  0  0  0
   -2.8961   -2.2230    0.0000 H   0  0  0  0  0  0  0  0  0  0  0  0
   -1.5371   -2.6646    0.0000 C   0  0  0  0  0  0  0  0  0  0  0  0
   -1.2822   -1.8800    0.0000 H   0  0  0  0  0  0  0  0  0  0  0  0
   -0.9851   -3.2777    0.0000 C   0  0  0  0  0  0  0  0  0  0  0  0
   -0.1781   -3.1062    0.0000 N   0  0  0  0  0  0  0  0  0  0  0  0
    0.3739   -3.7192    0.0000 C   0  0  0  0  0  0  0  0  0  0  0  0
    0.1190   -4.5039    0.0000 C   0  0  0  0  0  0  0  0  0  0  0  0
    0.6039   -5.1713    0.0000 C   0  0  0  0  0  0  0  0  0  0  0  0
    1.4289   -5.1713    0.0000 H   0  0  0  0  0  0  0  0  0  0  0  0
    0.1190   -5.8387    0.0000 S   0  0  0  0  0  0  0  0  0  0  0  0
   -0.6657   -5.5838    0.0000 C   0  0  0  0  0  0  0  0  0  0  0  0
   -1.3331   -6.0687    0.0000 H   0  0  0  0  0  0  0  0  0  0  0  0
   -0.6657   -4.7588    0.0000 N   0  0  0  0  0  0  0  0  0  0  0  0
    1.1720   -3.9281    0.0000 H   0  0  0  0  0  0  0  0  0  0  0  0
    1.0181   -3.2038    0.0000 H   0  0  0  0  0  0  0  0  0  0  0  0
    0.0768   -2.3215    0.0000 C   0  0  0  0  0  0  0  0  0  0  0  0
   -0.4752   -1.7084    0.0000 O   0  0  0  0  0  0  0  0  0  0  0  0
    0.8838   -2.1500    0.0000 C   0  0  0  0  0  0  0  0  0  0  0  0
    1.1387   -1.3654    0.0000 N   0  0  0  0  0  0  0  0  0  0  0  0
    0.6538   -0.6979    0.0000 N   0  0  0  0  0  0  0  0  0  0  0  0
    1.1387   -0.0305    0.0000 N   0  0  0  0  0  0  0  0  0  0  0  0
    1.9233   -0.2854    0.0000 C   0  0  0  0  0  0  0  0  0  0  0  0
    2.6378    0.1271    0.0000 C   0  0  0  0  0  0  0  0  0  0  0  0
    3.3523   -0.2854    0.0000 C   0  0  0  0  0  0  0  0  0  0  0  0
    3.3523   -1.1104    0.0000 C   0  0  0  0  0  0  0  0  0  0  0  0
    2.6378   -1.5229    0.0000 C   0  0  0  0  0  0  0  0  0  0  0  0
    2.6378   -2.3479    0.0000 H   0  0  0  0  0  0  0  0  0  0  0  0
    1.9233   -1.1104    0.0000 C   0  0  0  0  0  0  0  0  0  0  0  0
    4.0668   -1.5229    0.0000 H   0  0  0  0  0  0  0  0  0  0  0  0
    4.0668    0.1271    0.0000 H   0  0  0  0  0  0  0  0  0  0  0  0
    2.6378    0.9521    0.0000 H   0  0  0  0  0  0  0  0  0  0  0  0
    1.1019   -2.9456    0.0000 H   0  0  0  0  0  0  0  0  0  0  0  0
    1.6523   -2.4501    0.0000 H   0  0  0  0  0  0  0  0  0  0  0  0
   -1.2400   -4.0623    0.0000 C   0  0  0  0  0  0  0  0  0  0  0  0
   -1.5120   -4.8412    0.0000 H   0  0  0  0  0  0  0  0  0  0  0  0
   -2.0470   -4.2338    0.0000 C   0  0  0  0  0  0  0  0  0  0  0  0
   -2.6631   -4.7825    0.0000 H   0  0  0  0  0  0  0  0  0  0  0  0
   -3.9580   -3.1792    0.0000 H   0  0  0  0  0  0  0  0  0  0  0  0
   -4.6861   -3.9528    0.0000 H   0  0  0  0  0  0  0  0  0  0  0  0
   -5.2364   -4.4483    0.0000 H   0  0  0  0  0  0  0  0  0  0  0  0
   -5.5075   -5.2781    0.0000 H   0  0  0  0  0  0  0  0  0  0  0  0
   -4.9778   -6.3177    0.0000 H   0  0  0  0  0  0  0  0  0  0  0  0
   -3.9382   -5.7880    0.0000 H   0  0  0  0  0  0  0  0  0  0  0  0
  1  2  1  0  0  0  0
  2  3  1  0  0  0  0
  3  4  2  0  0  0  0
  3  5  1  0  0  0  0
  5  6  1  0  0  0  0
  6  7  2  0  0  0  0
  7  8  1  0  0  0  0
  7  9  1  0  0  0  0
  9 10  1  0  0  0  0
  9 11  2  0  0  0  0
 11 12  1  0  0  0  0
 12 13  1  0  0  0  0
 13 14  1  0  0  0  0
 14 15  2  0  0  0  0
 15 16  1  0  0  0  0
 15 17  1  0  0  0  0
 17 18  1  0  0  0  0
 18 19  1  0  0  0  0
 18 20  2  0  0  0  0
 14 20  1  0  0  0  0
 13 21  1  0  0  0  0
 13 22  1  0  0  0  0
 12 23  1  0  0  0  0
 23 24  2  0  0  0  0
 23 25  1  0  0  0  0
 25 26  1  0  0  0  0
 26 27  1  0  0  0  0
 27 28  2  0  0  0  0
 28 29  1  0  0  0  0
 29 30  2  0  0  0  0
 30 31  1  0  0  0  0
 31 32  2  0  0  0  0
 32 33  1  0  0  0  0
 33 34  1  0  0  0  0
 33 35  2  0  0  0  0
 26 35  1  0  0  0  0
 29 35  1  0  0  0  0
 32 36  1  0  0  0  0
 31 37  1  0  0  0  0
 30 38  1  0  0  0  0
 25 39  1  0  0  0  0
 25 40  1  0  0  0  0
 11 41  1  0  0  0  0
 41 42  1  0  0  0  0
 41 43  2  0  0  0  0
  6 43  1  0  0  0  0
 43 44  1  0  0  0  0
  5 45  1  0  0  0  0
  2 46  1  0  0  0  0
  2 47  1  0  0  0  0
  1 48  1  0  0  0  0
  1 49  1  0  0  0  0
  1 50  1  0  0  0  0
M  END
> <Potency>
24.9602678738497

> <pIC50>
4.602750758111789

> <Outcome>
Inactive

> <is_active>
0

$$$$

  Mrv1921 08232120312D          

 58 62  0  0  0  0            999 V2000
   -0.4752   -1.7084    0.0000 O   0  0  0  0  0  0  0  0  0  0  0  0
    0.0768   -2.3215    0.0000 C   0  0  0  0  0  0  0  0  0  0  0  0
    0.8838   -2.1500    0.0000 N   0  0  0  0  0  0  0  0  0  0  0  0
    1.1387   -1.3654    0.0000 N   0  0  0  0  0  0  0  0  0  0  0  0
    0.6538   -0.6979    0.0000 N   0  0  0  0  0  0  0  0  0  0  0  0
    1.1387   -0.0305    0.0000 N   0  0  0  0  0  0  0  0  0  0  0  0
    1.9233   -0.2854    0.0000 C   0  0  0  0  0  0  0  0  0  0  0  0
    2.6378    0.1271    0.0000 C   0  0  0  0  0  0  0  0  0  0  0  0
    3.3523   -0.2854    0.0000 C   0  0  0  0  0  0  0  0  0  0  0  0
    3.3523   -1.1104    0.0000 C   0  0  0  0  0  0  0  0  0  0  0  0
    2.6378   -1.5229    0.0000 C   0  0  0  0  0  0  0  0  0  0  0  0
    2.6378   -2.3479    0.0000 H   0  0  0  0  0  0  0  0  0  0  0  0
    1.9233   -1.1104    0.0000 C   0  0  0  0  0  0  0  0  0  0  0  0
    4.0668   -1.5229    0.0000 H   0  0  0  0  0  0  0  0  0  0  0  0
    4.0668    0.1271    0.0000 H   0  0  0  0  0  0  0  0  0  0  0  0
    2.6378    0.9521    0.0000 H   0  0  0  0  0  0  0  0  0  0  0  0
    1.4358   -2.7631    0.0000 H   0  0  0  0  0  0  0  0  0  0  0  0
   -0.1781   -3.1062    0.0000 C   0  0  0  0  0  0  0  0  0  0  0  0
    0.3739   -3.7192    0.0000 C   0  0  0  0  0  0  0  0  0  0  0  0
    0.1190   -4.5039    0.0000 C   0  0  0  0  0  0  0  0  0  0  0  0
    0.6710   -5.1170    0.0000 C   0  0  0  0  0  0  0  0  0  0  0  0
    1.4471   -5.3967    0.0000 H   0  0  0  0  0  0  0  0  0  0  0  0
    0.4161   -5.9016    0.0000 C   0  0  0  0  0  0  0  0  0  0  0  0
    0.9681   -6.5147    0.0000 H   0  0  0  0  0  0  0  0  0  0  0  0
   -0.3909   -6.0731    0.0000 C   0  0  0  0  0  0  0  0  0  0  0  0
   -0.6459   -6.8577    0.0000 H   0  0  0  0  0  0  0  0  0  0  0  0
   -0.9429   -5.4600    0.0000 C   0  0  0  0  0  0  0  0  0  0  0  0
   -1.7499   -5.6315    0.0000 Cl  0  0  0  0  0  0  0  0  0  0  0  0
   -0.6880   -4.6754    0.0000 C   0  0  0  0  0  0  0  0  0  0  0  0
   -0.4331   -3.8908    0.0000 H   0  0  0  0  0  0  0  0  0  0  0  0
    1.0240   -4.2272    0.0000 H   0  0  0  0  0  0  0  0  0  0  0  0
    1.1984   -3.6905    0.0000 H   0  0  0  0  0  0  0  0  0  0  0  0
   -0.9851   -3.2777    0.0000 C   0  0  0  0  0  0  0  0  0  0  0  0
   -1.2400   -4.0623    0.0000 C   0  0  0  0  0  0  0  0  0  0  0  0
   -1.4950   -4.8469    0.0000 H   0  0  0  0  0  0  0  0  0  0  0  0
   -2.0470   -4.2338    0.0000 C   0  0  0  0  0  0  0  0  0  0  0  0
   -2.6601   -4.7859    0.0000 H   0  0  0  0  0  0  0  0  0  0  0  0
   -2.5990   -3.6207    0.0000 C   0  0  0  0  0  0  0  0  0  0  0  0
   -3.4060   -3.7923    0.0000 N   0  0  0  0  0  0  0  0  0  0  0  0
   -3.6610   -4.5769    0.0000 C   0  0  0  0  0  0  0  0  0  0  0  0
   -3.4428   -5.3725    0.0000 H   0  0  0  0  0  0  0  0  0  0  0  0
   -2.8925   -4.8770    0.0000 H   0  0  0  0  0  0  0  0  0  0  0  0
   -4.4679   -4.7484    0.0000 C   0  0  0  0  0  0  0  0  0  0  0  0
   -5.0479   -5.3352    0.0000 H   0  0  0  0  0  0  0  0  0  0  0  0
   -4.3436   -5.5640    0.0000 H   0  0  0  0  0  0  0  0  0  0  0  0
   -5.0200   -4.1353    0.0000 C   0  0  0  0  0  0  0  0  0  0  0  0
   -5.8181   -3.9264    0.0000 H   0  0  0  0  0  0  0  0  0  0  0  0
   -5.6641   -4.6508    0.0000 H   0  0  0  0  0  0  0  0  0  0  0  0
   -4.7650   -3.3507    0.0000 C   0  0  0  0  0  0  0  0  0  0  0  0
   -4.9832   -2.5551    0.0000 H   0  0  0  0  0  0  0  0  0  0  0  0
   -5.5335   -3.0506    0.0000 H   0  0  0  0  0  0  0  0  0  0  0  0
   -3.9580   -3.1792    0.0000 C   0  0  0  0  0  0  0  0  0  0  0  0
   -3.7031   -2.3945    0.0000 O   0  0  0  0  0  0  0  0  0  0  0  0
   -2.3441   -2.8361    0.0000 C   0  0  0  0  0  0  0  0  0  0  0  0
   -2.8961   -2.2230    0.0000 H   0  0  0  0  0  0  0  0  0  0  0  0
   -1.5371   -2.6646    0.0000 C   0  0  0  0  0  0  0  0  0  0  0  0
   -1.2822   -1.8800    0.0000 H   0  0  0  0  0  0  0  0  0  0  0  0
    0.6288   -2.9346    0.0000 H   0  0  0  0  0  0  0  0  0  0  0  0
  1  2  2  0  0  0  0
  2  3  1  0  0  0  0
  3  4  1  0  0  0  0
  4  5  1  0  0  0  0
  5  6  2  0  0  0  0
  6  7  1  0  0  0  0
  7  8  2  0  0  0  0
  8  9  1  0  0  0  0
  9 10  2  0  0  0  0
 10 11  1  0  0  0  0
 11 12  1  0  0  0  0
 11 13  2  0  0  0  0
  4 13  1  0  0  0  0
  7 13  1  0  0  0  0
 10 14  1  0  0  0  0
  9 15  1  0  0  0  0
  8 16  1  0  0  0  0
  3 17  1  0  0  0  0
  2 18  1  0  0  0  0
 18 19  1  0  0  0  0
 19 20  1  0  0  0  0
 20 21  2  0  0  0  0
 21 22  1  0  0  0  0
 21 23  1  0  0  0  0
 23 24  1  0  0  0  0
 23 25  2  0  0  0  0
 25 26  1  0  0  0  0
 25 27  1  0  0  0  0
 27 28  1  0  0  0  0
 27 29  2  0  0  0  0
 20 29  1  0  0  0  0
 29 30  1  0  0  0  0
 19 31  1  0  0  0  0
 19 32  1  0  0  0  0
 18 33  1  0  0  0  0
 33 34  2  0  0  0  0
 34 35  1  0  0  0  0
 34 36  1  0  0  0  0
 36 37  1  0  0  0  0
 36 38  2  0  0  0  0
 38 39  1  0  0  0  0
 39 40  1  0  0  0  0
 40 41  1  0  0  0  0
 40 42  1  0  0  0  0
 40 43  1  0  0  0  0
 43 44  1  0  0  0  0
 43 45  1  0  0  0  0
 43 46  1  0  0  0  0
 46 47  1  0  0  0  0
 46 48  1  0  0  0  0
 46 49  1  0  0  0  0
 49 50  1  0  0  0  0
 49 51  1  0  0  0  0
 49 52  1  0  0  0  0
 39 52  1  0  0  0  0
 52 53  2  0  0  0  0
 38 54  1  0  0  0  0
 54 55  1  0  0  0  0
 54 56  2  0  0  0  0
 33 56  1  0  0  0  0
 56 57  1  0  0  0  0
 18 58  1  0  0  0  0
M  END
> <Potency>
50.9204838311659

> <pIC50>
4.293107478462859

> <Outcome>
Inactive

> <is_active>
0

$$$$

  Mrv1921 08232120312D          

 59 63  0  0  0  0            999 V2000
   -3.1089   -5.1900    0.0000 O   0  0  0  0  0  0  0  0  0  0  0  0
   -3.6610   -4.5769    0.0000 C   0  0  0  0  0  0  0  0  0  0  0  0
   -4.4679   -4.7484    0.0000 C   0  0  0  0  0  0  0  0  0  0  0  0
   -5.0479   -5.3352    0.0000 H   0  0  0  0  0  0  0  0  0  0  0  0
   -4.3436   -5.5640    0.0000 H   0  0  0  0  0  0  0  0  0  0  0  0
   -5.0200   -4.1353    0.0000 C   0  0  0  0  0  0  0  0  0  0  0  0
   -5.8181   -3.9264    0.0000 H   0  0  0  0  0  0  0  0  0  0  0  0
   -5.6641   -4.6508    0.0000 H   0  0  0  0  0  0  0  0  0  0  0  0
   -4.7650   -3.3507    0.0000 C   0  0  0  0  0  0  0  0  0  0  0  0
   -4.9832   -2.5551    0.0000 H   0  0  0  0  0  0  0  0  0  0  0  0
   -5.5335   -3.0506    0.0000 H   0  0  0  0  0  0  0  0  0  0  0  0
   -3.9580   -3.1792    0.0000 C   0  0  0  0  0  0  0  0  0  0  0  0
   -3.3781   -2.5924    0.0000 H   0  0  0  0  0  0  0  0  0  0  0  0
   -4.0824   -2.3636    0.0000 H   0  0  0  0  0  0  0  0  0  0  0  0
   -3.4060   -3.7923    0.0000 N   0  0  0  0  0  0  0  0  0  0  0  0
   -2.5990   -3.6207    0.0000 C   0  0  0  0  0  0  0  0  0  0  0  0
   -2.3441   -2.8361    0.0000 C   0  0  0  0  0  0  0  0  0  0  0  0
   -2.8961   -2.2230    0.0000 H   0  0  0  0  0  0  0  0  0  0  0  0
   -1.5371   -2.6646    0.0000 C   0  0  0  0  0  0  0  0  0  0  0  0
   -1.2822   -1.8800    0.0000 H   0  0  0  0  0  0  0  0  0  0  0  0
   -0.9851   -3.2777    0.0000 C   0  0  0  0  0  0  0  0  0  0  0  0
   -0.1781   -3.1062    0.0000 N   0  0  0  0  0  0  0  0  0  0  0  0
    0.3739   -3.7192    0.0000 C   0  0  0  0  0  0  0  0  0  0  0  0
    0.1190   -4.5039    0.0000 C   0  0  0  0  0  0  0  0  0  0  0  0
    0.6710   -5.1170    0.0000 C   0  0  0  0  0  0  0  0  0  0  0  0
    1.4780   -4.9454    0.0000 H   0  0  0  0  0  0  0  0  0  0  0  0
    0.4161   -5.9016    0.0000 C   0  0  0  0  0  0  0  0  0  0  0  0
    0.9681   -6.5147    0.0000 H   0  0  0  0  0  0  0  0  0  0  0  0
   -0.3909   -6.0731    0.0000 C   0  0  0  0  0  0  0  0  0  0  0  0
   -0.6459   -6.8577    0.0000 H   0  0  0  0  0  0  0  0  0  0  0  0
   -0.9429   -5.4600    0.0000 C   0  0  0  0  0  0  0  0  0  0  0  0
   -1.7499   -5.6315    0.0000 H   0  0  0  0  0  0  0  0  0  0  0  0
   -0.6880   -4.6754    0.0000 C   0  0  0  0  0  0  0  0  0  0  0  0
   -0.4331   -3.8908    0.0000 H   0  0  0  0  0  0  0  0  0  0  0  0
    1.1720   -3.9281    0.0000 H   0  0  0  0  0  0  0  0  0  0  0  0
    1.0181   -3.2038    0.0000 H   0  0  0  0  0  0  0  0  0  0  0  0
    0.0768   -2.3215    0.0000 C   0  0  0  0  0  0  0  0  0  0  0  0
   -0.4752   -1.7084    0.0000 O   0  0  0  0  0  0  0  0  0  0  0  0
    0.8838   -2.1500    0.0000 C   0  0  0  0  0  0  0  0  0  0  0  0
    1.1387   -1.3654    0.0000 C   0  0  0  0  0  0  0  0  0  0  0  0
    0.6538   -0.6979    0.0000 N   0  0  0  0  0  0  0  0  0  0  0  0
    1.1387   -0.0305    0.0000 N   0  0  0  0  0  0  0  0  0  0  0  0
    0.8838    0.7541    0.0000 H   0  0  0  0  0  0  0  0  0  0  0  0
    1.9233   -0.2854    0.0000 C   0  0  0  0  0  0  0  0  0  0  0  0
    2.6378    0.1271    0.0000 C   0  0  0  0  0  0  0  0  0  0  0  0
    3.3523   -0.2854    0.0000 C   0  0  0  0  0  0  0  0  0  0  0  0
    3.3523   -1.1104    0.0000 C   0  0  0  0  0  0  0  0  0  0  0  0
    2.6378   -1.5229    0.0000 C   0  0  0  0  0  0  0  0  0  0  0  0
    2.6378   -2.3479    0.0000 H   0  0  0  0  0  0  0  0  0  0  0  0
    1.9233   -1.1104    0.0000 C   0  0  0  0  0  0  0  0  0  0  0  0
    4.0668   -1.5229    0.0000 H   0  0  0  0  0  0  0  0  0  0  0  0
    4.0668    0.1271    0.0000 H   0  0  0  0  0  0  0  0  0  0  0  0
    2.6378    0.9521    0.0000 H   0  0  0  0  0  0  0  0  0  0  0  0
    1.1019   -2.9456    0.0000 H   0  0  0  0  0  0  0  0  0  0  0  0
    1.6523   -2.4501    0.0000 H   0  0  0  0  0  0  0  0  0  0  0  0
   -1.2400   -4.0623    0.0000 C   0  0  0  0  0  0  0  0  0  0  0  0
   -1.4950   -4.8469    0.0000 H   0  0  0  0  0  0  0  0  0  0  0  0
   -2.0470   -4.2338    0.0000 C   0  0  0  0  0  0  0  0  0  0  0  0
   -2.6601   -4.7859    0.0000 H   0  0  0  0  0  0  0  0  0  0  0  0
  1  2  2  0  0  0  0
  2  3  1  0  0  0  0
  3  4  1  0  0  0  0
  3  5  1  0  0  0  0
  3  6  1  0  0  0  0
  6  7  1  0  0  0  0
  6  8  1  0  0  0  0
  6  9  1  0  0  0  0
  9 10  1  0  0  0  0
  9 11  1  0  0  0  0
  9 12  1  0  0  0  0
 12 13  1  0  0  0  0
 12 14  1  0  0  0  0
 12 15  1  0  0  0  0
  2 15  1  0  0  0  0
 15 16  1  0  0  0  0
 16 17  2  0  0  0  0
 17 18  1  0  0  0  0
 17 19  1  0  0  0  0
 19 20  1  0  0  0  0
 19 21  2  0  0  0  0
 21 22  1  0  0  0  0
 22 23  1  0  0  0  0
 23 24  1  0  0  0  0
 24 25  2  0  0  0  0
 25 26  1  0  0  0  0
 25 27  1  0  0  0  0
 27 28  1  0  0  0  0
 27 29  2  0  0  0  0
 29 30  1  0  0  0  0
 29 31  1  0  0  0  0
 31 32  1  0  0  0  0
 31 33  2  0  0  0  0
 24 33  1  0  0  0  0
 33 34  1  0  0  0  0
 23 35  1  0  0  0  0
 23 36  1  0  0  0  0
 22 37  1  0  0  0  0
 37 38  2  0  0  0  0
 37 39  1  0  0  0  0
 39 40  1  0  0  0  0
 40 41  2  0  0  0  0
 41 42  1  0  0  0  0
 42 43  1  0  0  0  0
 42 44  1  0  0  0  0
 44 45  2  0  0  0  0
 45 46  1  0  0  0  0
 46 47  2  0  0  0  0
 47 48  1  0  0  0  0
 48 49  1  0  0  0  0
 48 50  2  0  0  0  0
 40 50  1  0  0  0  0
 44 50  1  0  0  0  0
 47 51  1  0  0  0  0
 46 52  1  0  0  0  0
 45 53  1  0  0  0  0
 39 54  1  0  0  0  0
 39 55  1  0  0  0  0
 21 56  1  0  0  0  0
 56 57  1  0  0  0  0
 56 58  2  0  0  0  0
 16 58  1  0  0  0  0
 58 59  1  0  0  0  0
M  END
> <Potency>
39.4352117028288

> <pIC50>
4.404115823377995

> <Outcome>
Inactive

> <is_active>
0

$$$$

  Mrv1921 08232120312D          

 43 45  0  0  0  0            999 V2000
   -2.1434   -6.1875    0.0000 C   0  0  0  0  0  0  0  0  0  0  0  0
   -2.1434   -5.3625    0.0000 C   0  0  0  0  0  0  0  0  0  0  0  0
   -2.8579   -4.9500    0.0000 O   0  0  0  0  0  0  0  0  0  0  0  0
   -1.4289   -4.9500    0.0000 N   0  0  0  0  0  0  0  0  0  0  0  0
   -1.4289   -4.1250    0.0000 C   0  0  0  0  0  0  0  0  0  0  0  0
   -1.8823   -3.4357    0.0000 H   0  0  0  0  0  0  0  0  0  0  0  0
   -2.2525   -4.0770    0.0000 H   0  0  0  0  0  0  0  0  0  0  0  0
   -0.7145   -3.7125    0.0000 C   0  0  0  0  0  0  0  0  0  0  0  0
   -0.3442   -2.9753    0.0000 H   0  0  0  0  0  0  0  0  0  0  0  0
   -1.0847   -2.9753    0.0000 H   0  0  0  0  0  0  0  0  0  0  0  0
    0.0000   -4.1250    0.0000 N   0  0  0  0  0  0  0  0  0  0  0  0
    0.7145   -3.7125    0.0000 C   0  0  0  0  0  0  0  0  0  0  0  0
    0.7145   -2.8875    0.0000 C   0  0  0  0  0  0  0  0  0  0  0  0
    0.0000   -2.4750    0.0000 O   0  0  0  0  0  0  0  0  0  0  0  0
    1.4289   -2.4750    0.0000 N   0  0  0  0  0  0  0  0  0  0  0  0
    1.4289   -1.6500    0.0000 C   0  0  0  0  0  0  0  0  0  0  0  0
    0.7145   -1.2375    0.0000 C   0  0  0  0  0  0  0  0  0  0  0  0
    0.0000   -1.6500    0.0000 H   0  0  0  0  0  0  0  0  0  0  0  0
    0.7145   -0.4125    0.0000 N   0  0  0  0  0  0  0  0  0  0  0  0
    1.4289    0.0000    0.0000 C   0  0  0  0  0  0  0  0  0  0  0  0
    1.4289    0.8250    0.0000 H   0  0  0  0  0  0  0  0  0  0  0  0
    2.1434   -0.4125    0.0000 C   0  0  0  0  0  0  0  0  0  0  0  0
    2.8579    0.0000    0.0000 C   0  0  0  0  0  0  0  0  0  0  0  0
    3.5724   -0.4125    0.0000 C   0  0  0  0  0  0  0  0  0  0  0  0
    3.5724   -1.2375    0.0000 C   0  0  0  0  0  0  0  0  0  0  0  0
    2.8579   -1.6500    0.0000 C   0  0  0  0  0  0  0  0  0  0  0  0
    2.8579   -2.4750    0.0000 H   0  0  0  0  0  0  0  0  0  0  0  0
    2.1434   -1.2375    0.0000 C   0  0  0  0  0  0  0  0  0  0  0  0
    4.2868   -1.6500    0.0000 H   0  0  0  0  0  0  0  0  0  0  0  0
    4.2868   -0.0000    0.0000 H   0  0  0  0  0  0  0  0  0  0  0  0
    2.8579    0.8250    0.0000 H   0  0  0  0  0  0  0  0  0  0  0  0
    2.1434   -2.8875    0.0000 H   0  0  0  0  0  0  0  0  0  0  0  0
    1.1678   -4.4018    0.0000 H   0  0  0  0  0  0  0  0  0  0  0  0
    1.5381   -3.7605    0.0000 H   0  0  0  0  0  0  0  0  0  0  0  0
    0.0000   -4.9500    0.0000 C   0  0  0  0  0  0  0  0  0  0  0  0
    0.4533   -5.6393    0.0000 H   0  0  0  0  0  0  0  0  0  0  0  0
    0.8236   -4.9980    0.0000 H   0  0  0  0  0  0  0  0  0  0  0  0
   -0.7145   -5.3625    0.0000 C   0  0  0  0  0  0  0  0  0  0  0  0
   -1.0847   -6.0997    0.0000 H   0  0  0  0  0  0  0  0  0  0  0  0
   -0.3442   -6.0997    0.0000 H   0  0  0  0  0  0  0  0  0  0  0  0
   -2.9684   -6.1875    0.0000 H   0  0  0  0  0  0  0  0  0  0  0  0
   -2.1434   -7.0125    0.0000 H   0  0  0  0  0  0  0  0  0  0  0  0
   -1.3184   -6.1875    0.0000 H   0  0  0  0  0  0  0  0  0  0  0  0
  1  2  1  0  0  0  0
  2  3  2  0  0  0  0
  2  4  1  0  0  0  0
  4  5  1  0  0  0  0
  5  6  1  0  0  0  0
  5  7  1  0  0  0  0
  5  8  1  0  0  0  0
  8  9  1  0  0  0  0
  8 10  1  0  0  0  0
  8 11  1  0  0  0  0
 11 12  1  0  0  0  0
 12 13  1  0  0  0  0
 13 14  2  0  0  0  0
 13 15  1  0  0  0  0
 15 16  1  0  0  0  0
 16 17  2  0  0  0  0
 17 18  1  0  0  0  0
 17 19  1  0  0  0  0
 19 20  2  0  0  0  0
 20 21  1  0  0  0  0
 20 22  1  0  0  0  0
 22 23  2  0  0  0  0
 23 24  1  0  0  0  0
 24 25  2  0  0  0  0
 25 26  1  0  0  0  0
 26 27  1  0  0  0  0
 26 28  2  0  0  0  0
 16 28  1  0  0  0  0
 22 28  1  0  0  0  0
 25 29  1  0  0  0  0
 24 30  1  0  0  0  0
 23 31  1  0  0  0  0
 15 32  1  0  0  0  0
 12 33  1  0  0  0  0
 12 34  1  0  0  0  0
 11 35  1  0  0  0  0
 35 36  1  0  0  0  0
 35 37  1  0  0  0  0
 35 38  1  0  0  0  0
  4 38  1  0  0  0  0
 38 39  1  0  0  0  0
 38 40  1  0  0  0  0
  1 41  1  0  0  0  0
  1 42  1  0  0  0  0
  1 43  1  0  0  0  0
M  END
> <Potency>
71.6880958870563

> <pIC50>
4.144552954789393

> <Outcome>
Inactive

> <is_active>
0

$$$$

  Mrv1921 08232120312D          

 37 38  0  0  0  0            999 V2000
   -0.7145   -2.8875    0.0000 C   0  0  0  0  0  0  0  0  0  0  0  0
    0.0000   -2.4750    0.0000 O   0  0  0  0  0  0  0  0  0  0  0  0
    0.0000   -1.6500    0.0000 C   0  0  0  0  0  0  0  0  0  0  0  0
   -0.7145   -1.2375    0.0000 O   0  0  0  0  0  0  0  0  0  0  0  0
    0.7145   -1.2375    0.0000 C   0  0  0  0  0  0  0  0  0  0  0  0
    1.4289   -1.6500    0.0000 C   0  0  0  0  0  0  0  0  0  0  0  0
    2.1434   -1.2375    0.0000 O   0  0  0  0  0  0  0  0  0  0  0  0
    1.4289   -2.4750    0.0000 N   0  0  0  0  0  0  0  0  0  0  0  0
    2.1434   -2.8875    0.0000 C   0  0  0  0  0  0  0  0  0  0  0  0
    2.8579   -2.4750    0.0000 C   0  0  0  0  0  0  0  0  0  0  0  0
    2.8579   -1.6500    0.0000 H   0  0  0  0  0  0  0  0  0  0  0  0
    3.5724   -2.8875    0.0000 N   0  0  0  0  0  0  0  0  0  0  0  0
    3.5724   -3.7125    0.0000 C   0  0  0  0  0  0  0  0  0  0  0  0
    4.2868   -4.1250    0.0000 H   0  0  0  0  0  0  0  0  0  0  0  0
    2.8579   -4.1250    0.0000 C   0  0  0  0  0  0  0  0  0  0  0  0
    2.8579   -4.9500    0.0000 H   0  0  0  0  0  0  0  0  0  0  0  0
    2.1434   -3.7125    0.0000 C   0  0  0  0  0  0  0  0  0  0  0  0
    1.4289   -4.1250    0.0000 C   0  0  0  0  0  0  0  0  0  0  0  0
    1.0164   -3.4105    0.0000 H   0  0  0  0  0  0  0  0  0  0  0  0
    0.7145   -4.5375    0.0000 H   0  0  0  0  0  0  0  0  0  0  0  0
    1.8414   -4.8395    0.0000 H   0  0  0  0  0  0  0  0  0  0  0  0
    1.0164   -3.1895    0.0000 H   0  0  0  0  0  0  0  0  0  0  0  0
    0.7145   -0.4125    0.0000 C   0  0  0  0  0  0  0  0  0  0  0  0
    0.0000    0.0000    0.0000 C   0  0  0  0  0  0  0  0  0  0  0  0
   -0.7145   -0.4125    0.0000 H   0  0  0  0  0  0  0  0  0  0  0  0
    0.0000    0.8250    0.0000 C   0  0  0  0  0  0  0  0  0  0  0  0
   -0.7145    1.2375    0.0000 H   0  0  0  0  0  0  0  0  0  0  0  0
    0.7145    1.2375    0.0000 C   0  0  0  0  0  0  0  0  0  0  0  0
    0.7145    2.0625    0.0000 H   0  0  0  0  0  0  0  0  0  0  0  0
    1.4289    0.8250    0.0000 C   0  0  0  0  0  0  0  0  0  0  0  0
    2.1434    1.2375    0.0000 Cl  0  0  0  0  0  0  0  0  0  0  0  0
    1.4289   -0.0000    0.0000 C   0  0  0  0  0  0  0  0  0  0  0  0
    2.1434   -0.4125    0.0000 H   0  0  0  0  0  0  0  0  0  0  0  0
    0.7145   -2.0625    0.0000 H   0  0  0  0  0  0  0  0  0  0  0  0
   -1.1270   -2.1730    0.0000 H   0  0  0  0  0  0  0  0  0  0  0  0
   -1.4289   -3.3000    0.0000 H   0  0  0  0  0  0  0  0  0  0  0  0
   -0.3020   -3.6020    0.0000 H   0  0  0  0  0  0  0  0  0  0  0  0
  1  2  1  0  0  0  0
  2  3  1  0  0  0  0
  3  4  2  0  0  0  0
  3  5  1  0  0  0  0
  5  6  1  0  0  0  0
  6  7  2  0  0  0  0
  6  8  1  0  0  0  0
  8  9  1  0  0  0  0
  9 10  2  0  0  0  0
 10 11  1  0  0  0  0
 10 12  1  0  0  0  0
 12 13  2  0  0  0  0
 13 14  1  0  0  0  0
 13 15  1  0  0  0  0
 15 16  1  0  0  0  0
 15 17  2  0  0  0  0
  9 17  1  0  0  0  0
 17 18  1  0  0  0  0
 18 19  1  0  0  0  0
 18 20  1  0  0  0  0
 18 21  1  0  0  0  0
  8 22  1  0  0  0  0
  5 23  1  0  0  0  0
 23 24  2  0  0  0  0
 24 25  1  0  0  0  0
 24 26  1  0  0  0  0
 26 27  1  0  0  0  0
 26 28  2  0  0  0  0
 28 29  1  0  0  0  0
 28 30  1  0  0  0  0
 30 31  1  0  0  0  0
 30 32  2  0  0  0  0
 23 32  1  0  0  0  0
 32 33  1  0  0  0  0
  5 34  1  0  0  0  0
  1 35  1  0  0  0  0
  1 36  1  0  0  0  0
  1 37  1  0  0  0  0
M  END
> <Potency>
23.7122950305224

> <pIC50>
4.625026410135872

> <Outcome>
Inactive

> <is_active>
0

$$$$

  Mrv1921 08232120312D          

 31 33  0  0  0  0            999 V2000
    1.8500    2.0625    0.0000 O   0  0  0  0  0  0  0  0  0  0  0  0
    2.5645    2.4750    0.0000 C   0  0  0  0  0  0  0  0  0  0  0  0
    2.5645    3.3000    0.0000 C   0  0  0  0  0  0  0  0  0  0  0  0
    1.8500    3.7125    0.0000 C   0  0  0  0  0  0  0  0  0  0  0  0
    1.1355    3.3000    0.0000 C   0  0  0  0  0  0  0  0  0  0  0  0
    1.1355    2.4750    0.0000 H   0  0  0  0  0  0  0  0  0  0  0  0
    0.4210    3.7125    0.0000 C   0  0  0  0  0  0  0  0  0  0  0  0
   -0.2934    3.3000    0.0000 H   0  0  0  0  0  0  0  0  0  0  0  0
    0.4210    4.5375    0.0000 C   0  0  0  0  0  0  0  0  0  0  0  0
   -0.2934    4.9500    0.0000 H   0  0  0  0  0  0  0  0  0  0  0  0
    1.1355    4.9500    0.0000 C   0  0  0  0  0  0  0  0  0  0  0  0
    1.1355    5.7750    0.0000 Cl  0  0  0  0  0  0  0  0  0  0  0  0
    1.8500    4.5375    0.0000 C   0  0  0  0  0  0  0  0  0  0  0  0
    2.5645    4.9500    0.0000 H   0  0  0  0  0  0  0  0  0  0  0  0
    3.3881    3.3480    0.0000 H   0  0  0  0  0  0  0  0  0  0  0  0
    3.0178    3.9893    0.0000 H   0  0  0  0  0  0  0  0  0  0  0  0
    3.2789    2.0625    0.0000 N   0  0  0  0  0  0  0  0  0  0  0  0
    3.2789    1.2375    0.0000 C   0  0  0  0  0  0  0  0  0  0  0  0
    3.9934    0.8250    0.0000 C   0  0  0  0  0  0  0  0  0  0  0  0
    4.7079    1.2375    0.0000 H   0  0  0  0  0  0  0  0  0  0  0  0
    3.9934    0.0000    0.0000 N   0  0  0  0  0  0  0  0  0  0  0  0
    3.2789   -0.4125    0.0000 C   0  0  0  0  0  0  0  0  0  0  0  0
    3.2789   -1.2375    0.0000 H   0  0  0  0  0  0  0  0  0  0  0  0
    2.5645    0.0000    0.0000 C   0  0  0  0  0  0  0  0  0  0  0  0
    1.7798   -0.2549    0.0000 N   0  0  0  0  0  0  0  0  0  0  0  0
    1.2949    0.4125    0.0000 C   0  0  0  0  0  0  0  0  0  0  0  0
    1.7798    1.0799    0.0000 N   0  0  0  0  0  0  0  0  0  0  0  0
    1.5249    1.8646    0.0000 H   0  0  0  0  0  0  0  0  0  0  0  0
    2.5645    0.8250    0.0000 C   0  0  0  0  0  0  0  0  0  0  0  0
    0.4699    0.4125    0.0000 H   0  0  0  0  0  0  0  0  0  0  0  0
    3.9934    2.4750    0.0000 H   0  0  0  0  0  0  0  0  0  0  0  0
  1  2  2  0  0  0  0
  2  3  1  0  0  0  0
  3  4  1  0  0  0  0
  4  5  2  0  0  0  0
  5  6  1  0  0  0  0
  5  7  1  0  0  0  0
  7  8  1  0  0  0  0
  7  9  2  0  0  0  0
  9 10  1  0  0  0  0
  9 11  1  0  0  0  0
 11 12  1  0  0  0  0
 11 13  2  0  0  0  0
  4 13  1  0  0  0  0
 13 14  1  0  0  0  0
  3 15  1  0  0  0  0
  3 16  1  0  0  0  0
  2 17  1  0  0  0  0
 17 18  1  0  0  0  0
 18 19  1  0  0  0  0
 19 20  1  0  0  0  0
 19 21  2  0  0  0  0
 21 22  1  0  0  0  0
 22 23  1  0  0  0  0
 22 24  2  0  0  0  0
 24 25  1  0  0  0  0
 25 26  2  0  0  0  0
 26 27  1  0  0  0  0
 27 28  1  0  0  0  0
 27 29  1  0  0  0  0
 18 29  2  0  0  0  0
 24 29  1  0  0  0  0
 26 30  1  0  0  0  0
 17 31  1  0  0  0  0
M  END
> <Potency>
13.260878543169

> <pIC50>
4.877427702642311

> <Outcome>
Inactive

> <is_active>
0

$$$$

  Mrv1921 08232120312D          

 54 58  0  0  0  0            999 V2000
   -0.4752   -1.7084    0.0000 O   0  0  0  0  0  0  0  0  0  0  0  0
    0.0768   -2.3215    0.0000 C   0  0  0  0  0  0  0  0  0  0  0  0
    0.8838   -2.1500    0.0000 C   0  0  0  0  0  0  0  0  0  0  0  0
    1.1387   -1.3654    0.0000 N   0  0  0  0  0  0  0  0  0  0  0  0
    0.6538   -0.6979    0.0000 N   0  0  0  0  0  0  0  0  0  0  0  0
    1.1387   -0.0305    0.0000 N   0  0  0  0  0  0  0  0  0  0  0  0
    1.9233   -0.2854    0.0000 C   0  0  0  0  0  0  0  0  0  0  0  0
    2.6378    0.1271    0.0000 C   0  0  0  0  0  0  0  0  0  0  0  0
    3.3523   -0.2854    0.0000 C   0  0  0  0  0  0  0  0  0  0  0  0
    3.3523   -1.1104    0.0000 C   0  0  0  0  0  0  0  0  0  0  0  0
    2.6378   -1.5229    0.0000 C   0  0  0  0  0  0  0  0  0  0  0  0
    2.6378   -2.3479    0.0000 H   0  0  0  0  0  0  0  0  0  0  0  0
    1.9233   -1.1104    0.0000 C   0  0  0  0  0  0  0  0  0  0  0  0
    4.0668   -1.5229    0.0000 H   0  0  0  0  0  0  0  0  0  0  0  0
    4.0668    0.1271    0.0000 H   0  0  0  0  0  0  0  0  0  0  0  0
    2.6378    0.9521    0.0000 H   0  0  0  0  0  0  0  0  0  0  0  0
    1.1019   -2.9456    0.0000 H   0  0  0  0  0  0  0  0  0  0  0  0
    1.6523   -2.4501    0.0000 H   0  0  0  0  0  0  0  0  0  0  0  0
   -0.1781   -3.1062    0.0000 N   0  0  0  0  0  0  0  0  0  0  0  0
    0.3739   -3.7192    0.0000 C   0  0  0  0  0  0  0  0  0  0  0  0
    0.1190   -4.5039    0.0000 C   0  0  0  0  0  0  0  0  0  0  0  0
    0.6039   -5.1713    0.0000 C   0  0  0  0  0  0  0  0  0  0  0  0
    1.4289   -5.1713    0.0000 H   0  0  0  0  0  0  0  0  0  0  0  0
    0.1190   -5.8387    0.0000 C   0  0  0  0  0  0  0  0  0  0  0  0
    0.3739   -6.6234    0.0000 H   0  0  0  0  0  0  0  0  0  0  0  0
   -0.6657   -5.5838    0.0000 S   0  0  0  0  0  0  0  0  0  0  0  0
   -0.6657   -4.7588    0.0000 C   0  0  0  0  0  0  0  0  0  0  0  0
   -1.4421   -5.0377    0.0000 H   0  0  0  0  0  0  0  0  0  0  0  0
    1.1720   -3.9281    0.0000 H   0  0  0  0  0  0  0  0  0  0  0  0
    1.0181   -3.2038    0.0000 H   0  0  0  0  0  0  0  0  0  0  0  0
   -0.9851   -3.2777    0.0000 C   0  0  0  0  0  0  0  0  0  0  0  0
   -1.2400   -4.0623    0.0000 C   0  0  0  0  0  0  0  0  0  0  0  0
   -0.4295   -3.9083    0.0000 H   0  0  0  0  0  0  0  0  0  0  0  0
   -2.0470   -4.2338    0.0000 C   0  0  0  0  0  0  0  0  0  0  0  0
   -2.3020   -5.0184    0.0000 H   0  0  0  0  0  0  0  0  0  0  0  0
   -2.5990   -3.6207    0.0000 C   0  0  0  0  0  0  0  0  0  0  0  0
   -3.4060   -3.7923    0.0000 N   0  0  0  0  0  0  0  0  0  0  0  0
   -3.6610   -4.5769    0.0000 C   0  0  0  0  0  0  0  0  0  0  0  0
   -3.4428   -5.3725    0.0000 H   0  0  0  0  0  0  0  0  0  0  0  0
   -2.8925   -4.8770    0.0000 H   0  0  0  0  0  0  0  0  0  0  0  0
   -4.4679   -4.7484    0.0000 C   0  0  0  0  0  0  0  0  0  0  0  0
   -5.0479   -5.3352    0.0000 H   0  0  0  0  0  0  0  0  0  0  0  0
   -4.3436   -5.5640    0.0000 H   0  0  0  0  0  0  0  0  0  0  0  0
   -5.0200   -4.1353    0.0000 O   0  0  0  0  0  0  0  0  0  0  0  0
   -4.7650   -3.3507    0.0000 C   0  0  0  0  0  0  0  0  0  0  0  0
   -4.9832   -2.5551    0.0000 H   0  0  0  0  0  0  0  0  0  0  0  0
   -5.5335   -3.0506    0.0000 H   0  0  0  0  0  0  0  0  0  0  0  0
   -3.9580   -3.1792    0.0000 C   0  0  0  0  0  0  0  0  0  0  0  0
   -3.3781   -2.5924    0.0000 H   0  0  0  0  0  0  0  0  0  0  0  0
   -4.0824   -2.3636    0.0000 H   0  0  0  0  0  0  0  0  0  0  0  0
   -2.3441   -2.8361    0.0000 C   0  0  0  0  0  0  0  0  0  0  0  0
   -2.8961   -2.2230    0.0000 H   0  0  0  0  0  0  0  0  0  0  0  0
   -1.5371   -2.6646    0.0000 C   0  0  0  0  0  0  0  0  0  0  0  0
   -1.2822   -1.8800    0.0000 H   0  0  0  0  0  0  0  0  0  0  0  0
  1  2  2  0  0  0  0
  2  3  1  0  0  0  0
  3  4  1  0  0  0  0
  4  5  1  0  0  0  0
  5  6  2  0  0  0  0
  6  7  1  0  0  0  0
  7  8  2  0  0  0  0
  8  9  1  0  0  0  0
  9 10  2  0  0  0  0
 10 11  1  0  0  0  0
 11 12  1  0  0  0  0
 11 13  2  0  0  0  0
  4 13  1  0  0  0  0
  7 13  1  0  0  0  0
 10 14  1  0  0  0  0
  9 15  1  0  0  0  0
  8 16  1  0  0  0  0
  3 17  1  0  0  0  0
  3 18  1  0  0  0  0
  2 19  1  0  0  0  0
 19 20  1  0  0  0  0
 20 21  1  0  0  0  0
 21 22  1  0  0  0  0
 22 23  1  0  0  0  0
 22 24  2  0  0  0  0
 24 25  1  0  0  0  0
 24 26  1  0  0  0  0
 26 27  1  0  0  0  0
 21 27  2  0  0  0  0
 27 28  1  0  0  0  0
 20 29  1  0  0  0  0
 20 30  1  0  0  0  0
 19 31  1  0  0  0  0
 31 32  2  0  0  0  0
 32 33  1  0  0  0  0
 32 34  1  0  0  0  0
 34 35  1  0  0  0  0
 34 36  2  0  0  0  0
 36 37  1  0  0  0  0
 37 38  1  0  0  0  0
 38 39  1  0  0  0  0
 38 40  1  0  0  0  0
 38 41  1  0  0  0  0
 41 42  1  0  0  0  0
 41 43  1  0  0  0  0
 41 44  1  0  0  0  0
 44 45  1  0  0  0  0
 45 46  1  0  0  0  0
 45 47  1  0  0  0  0
 45 48  1  0  0  0  0
 37 48  1  0  0  0  0
 48 49  1  0  0  0  0
 48 50  1  0  0  0  0
 36 51  1  0  0  0  0
 51 52  1  0  0  0  0
 51 53  2  0  0  0  0
 31 53  1  0  0  0  0
 53 54  1  0  0  0  0
M  END
> <Potency>
11.6228762710328

> <pIC50>
4.9346863853653

> <Outcome>
Inactive

> <is_active>
0

$$$$

  Mrv1921 08232120312D          

 57 61  0  0  0  0            999 V2000
   -0.4752   -1.7084    0.0000 O   0  0  0  0  0  0  0  0  0  0  0  0
    0.0768   -2.3215    0.0000 C   0  0  0  0  0  0  0  0  0  0  0  0
    0.8838   -2.1500    0.0000 C   0  0  0  0  0  0  0  0  0  0  0  0
    1.1387   -1.3654    0.0000 N   0  0  0  0  0  0  0  0  0  0  0  0
    0.6538   -0.6979    0.0000 N   0  0  0  0  0  0  0  0  0  0  0  0
    1.1387   -0.0305    0.0000 N   0  0  0  0  0  0  0  0  0  0  0  0
    1.9233   -0.2854    0.0000 C   0  0  0  0  0  0  0  0  0  0  0  0
    2.6378    0.1271    0.0000 C   0  0  0  0  0  0  0  0  0  0  0  0
    3.3523   -0.2854    0.0000 C   0  0  0  0  0  0  0  0  0  0  0  0
    3.3523   -1.1104    0.0000 C   0  0  0  0  0  0  0  0  0  0  0  0
    2.6378   -1.5229    0.0000 C   0  0  0  0  0  0  0  0  0  0  0  0
    2.6378   -2.3479    0.0000 H   0  0  0  0  0  0  0  0  0  0  0  0
    1.9233   -1.1104    0.0000 C   0  0  0  0  0  0  0  0  0  0  0  0
    4.0668   -1.5229    0.0000 H   0  0  0  0  0  0  0  0  0  0  0  0
    4.0668    0.1271    0.0000 H   0  0  0  0  0  0  0  0  0  0  0  0
    2.6378    0.9521    0.0000 H   0  0  0  0  0  0  0  0  0  0  0  0
    1.1019   -2.9456    0.0000 H   0  0  0  0  0  0  0  0  0  0  0  0
    1.6523   -2.4501    0.0000 H   0  0  0  0  0  0  0  0  0  0  0  0
   -0.1781   -3.1062    0.0000 N   0  0  0  0  0  0  0  0  0  0  0  0
    0.3739   -3.7192    0.0000 C   0  0  0  0  0  0  0  0  0  0  0  0
    0.1190   -4.5039    0.0000 C   0  0  0  0  0  0  0  0  0  0  0  0
    0.6710   -5.1170    0.0000 C   0  0  0  0  0  0  0  0  0  0  0  0
    1.4780   -4.9454    0.0000 H   0  0  0  0  0  0  0  0  0  0  0  0
    0.4161   -5.9016    0.0000 C   0  0  0  0  0  0  0  0  0  0  0  0
    0.9681   -6.5147    0.0000 H   0  0  0  0  0  0  0  0  0  0  0  0
   -0.3909   -6.0731    0.0000 C   0  0  0  0  0  0  0  0  0  0  0  0
   -0.6459   -6.8577    0.0000 H   0  0  0  0  0  0  0  0  0  0  0  0
   -0.9429   -5.4600    0.0000 C   0  0  0  0  0  0  0  0  0  0  0  0
   -1.7499   -5.6315    0.0000 H   0  0  0  0  0  0  0  0  0  0  0  0
   -0.6880   -4.6754    0.0000 C   0  0  0  0  0  0  0  0  0  0  0  0
   -0.4331   -3.8908    0.0000 H   0  0  0  0  0  0  0  0  0  0  0  0
    1.1720   -3.9281    0.0000 H   0  0  0  0  0  0  0  0  0  0  0  0
    1.0181   -3.2038    0.0000 H   0  0  0  0  0  0  0  0  0  0  0  0
   -0.9851   -3.2777    0.0000 C   0  0  0  0  0  0  0  0  0  0  0  0
   -1.2400   -4.0623    0.0000 C   0  0  0  0  0  0  0  0  0  0  0  0
   -1.4950   -4.8469    0.0000 H   0  0  0  0  0  0  0  0  0  0  0  0
   -2.0470   -4.2338    0.0000 C   0  0  0  0  0  0  0  0  0  0  0  0
   -2.6601   -4.7859    0.0000 H   0  0  0  0  0  0  0  0  0  0  0  0
   -2.5990   -3.6207    0.0000 C   0  0  0  0  0  0  0  0  0  0  0  0
   -3.4060   -3.7923    0.0000 N   0  0  0  0  0  0  0  0  0  0  0  0
   -3.6610   -4.5769    0.0000 C   0  0  0  0  0  0  0  0  0  0  0  0
   -3.4428   -5.3725    0.0000 H   0  0  0  0  0  0  0  0  0  0  0  0
   -2.8925   -4.8770    0.0000 H   0  0  0  0  0  0  0  0  0  0  0  0
   -4.4679   -4.7484    0.0000 C   0  0  0  0  0  0  0  0  0  0  0  0
   -5.0479   -5.3352    0.0000 H   0  0  0  0  0  0  0  0  0  0  0  0
   -4.3436   -5.5640    0.0000 H   0  0  0  0  0  0  0  0  0  0  0  0
   -5.0200   -4.1353    0.0000 O   0  0  0  0  0  0  0  0  0  0  0  0
   -4.7650   -3.3507    0.0000 C   0  0  0  0  0  0  0  0  0  0  0  0
   -4.9832   -2.5551    0.0000 H   0  0  0  0  0  0  0  0  0  0  0  0
   -5.5335   -3.0506    0.0000 H   0  0  0  0  0  0  0  0  0  0  0  0
   -3.9580   -3.1792    0.0000 C   0  0  0  0  0  0  0  0  0  0  0  0
   -3.3781   -2.5924    0.0000 H   0  0  0  0  0  0  0  0  0  0  0  0
   -4.0824   -2.3636    0.0000 H   0  0  0  0  0  0  0  0  0  0  0  0
   -2.3441   -2.8361    0.0000 C   0  0  0  0  0  0  0  0  0  0  0  0
   -2.8961   -2.2230    0.0000 H   0  0  0  0  0  0  0  0  0  0  0  0
   -1.5371   -2.6646    0.0000 C   0  0  0  0  0  0  0  0  0  0  0  0
   -1.2822   -1.8800    0.0000 H   0  0  0  0  0  0  0  0  0  0  0  0
  1  2  2  0  0  0  0
  2  3  1  0  0  0  0
  3  4  1  0  0  0  0
  4  5  1  0  0  0  0
  5  6  2  0  0  0  0
  6  7  1  0  0  0  0
  7  8  2  0  0  0  0
  8  9  1  0  0  0  0
  9 10  2  0  0  0  0
 10 11  1  0  0  0  0
 11 12  1  0  0  0  0
 11 13  2  0  0  0  0
  4 13  1  0  0  0  0
  7 13  1  0  0  0  0
 10 14  1  0  0  0  0
  9 15  1  0  0  0  0
  8 16  1  0  0  0  0
  3 17  1  0  0  0  0
  3 18  1  0  0  0  0
  2 19  1  0  0  0  0
 19 20  1  0  0  0  0
 20 21  1  0  0  0  0
 21 22  2  0  0  0  0
 22 23  1  0  0  0  0
 22 24  1  0  0  0  0
 24 25  1  0  0  0  0
 24 26  2  0  0  0  0
 26 27  1  0  0  0  0
 26 28  1  0  0  0  0
 28 29  1  0  0  0  0
 28 30  2  0  0  0  0
 21 30  1  0  0  0  0
 30 31  1  0  0  0  0
 20 32  1  0  0  0  0
 20 33  1  0  0  0  0
 19 34  1  0  0  0  0
 34 35  2  0  0  0  0
 35 36  1  0  0  0  0
 35 37  1  0  0  0  0
 37 38  1  0  0  0  0
 37 39  2  0  0  0  0
 39 40  1  0  0  0  0
 40 41  1  0  0  0  0
 41 42  1  0  0  0  0
 41 43  1  0  0  0  0
 41 44  1  0  0  0  0
 44 45  1  0  0  0  0
 44 46  1  0  0  0  0
 44 47  1  0  0  0  0
 47 48  1  0  0  0  0
 48 49  1  0  0  0  0
 48 50  1  0  0  0  0
 48 51  1  0  0  0  0
 40 51  1  0  0  0  0
 51 52  1  0  0  0  0
 51 53  1  0  0  0  0
 39 54  1  0  0  0  0
 54 55  1  0  0  0  0
 54 56  2  0  0  0  0
 34 56  1  0  0  0  0
 56 57  1  0  0  0  0
M  END
> <Potency>
19.761051641457

> <pIC50>
4.704189946897753

> <Outcome>
Inactive

> <is_active>
0

$$$$

  Mrv1921 08232120312D          

 51 53  0  0  0  0            999 V2000
   -2.8579   -1.6500    0.0000 C   0  0  0  0  0  0  0  0  0  0  0  0
   -2.8579   -2.4750    0.0000 O   0  0  0  0  0  0  0  0  0  0  0  0
   -2.1434   -2.8875    0.0000 C   0  0  0  0  0  0  0  0  0  0  0  0
   -1.4289   -2.4750    0.0000 O   0  0  0  0  0  0  0  0  0  0  0  0
   -2.1434   -3.7125    0.0000 C   0  0  0  0  0  0  0  0  0  0  0  0
   -1.4289   -4.1250    0.0000 C   0  0  0  0  0  0  0  0  0  0  0  0
   -0.7145   -3.7125    0.0000 H   0  0  0  0  0  0  0  0  0  0  0  0
   -1.4289   -4.9500    0.0000 C   0  0  0  0  0  0  0  0  0  0  0  0
   -0.7145   -5.3625    0.0000 H   0  0  0  0  0  0  0  0  0  0  0  0
   -2.1434   -5.3625    0.0000 C   0  0  0  0  0  0  0  0  0  0  0  0
   -2.1434   -6.1875    0.0000 C   0  0  0  0  0  0  0  0  0  0  0  0
   -1.4289   -6.6000    0.0000 C   0  0  0  0  0  0  0  0  0  0  0  0
   -0.7145   -6.1875    0.0000 H   0  0  0  0  0  0  0  0  0  0  0  0
   -1.4289   -7.4250    0.0000 C   0  0  0  0  0  0  0  0  0  0  0  0
   -0.7145   -7.8375    0.0000 Cl  0  0  0  0  0  0  0  0  0  0  0  0
   -2.1434   -7.8375    0.0000 C   0  0  0  0  0  0  0  0  0  0  0  0
   -2.1434   -8.6625    0.0000 H   0  0  0  0  0  0  0  0  0  0  0  0
   -2.8579   -7.4250    0.0000 C   0  0  0  0  0  0  0  0  0  0  0  0
   -3.5724   -7.8375    0.0000 C   0  0  0  0  0  0  0  0  0  0  0  0
   -4.2868   -7.4250    0.0000 C   0  0  0  0  0  0  0  0  0  0  0  0
   -4.2868   -6.6000    0.0000 O   0  0  0  0  0  0  0  0  0  0  0  0
   -5.0013   -7.8375    0.0000 N   0  0  0  0  0  0  0  0  0  0  0  0
   -5.0013   -8.6625    0.0000 C   0  0  0  0  0  0  0  0  0  0  0  0
   -4.2868   -9.0750    0.0000 C   0  0  0  0  0  0  0  0  0  0  0  0
   -3.4990   -9.3199    0.0000 H   0  0  0  0  0  0  0  0  0  0  0  0
   -4.2868   -9.9000    0.0000 N   0  0  0  0  0  0  0  0  0  0  0  0
   -5.0013  -10.3125    0.0000 C   0  0  0  0  0  0  0  0  0  0  0  0
   -5.0013  -11.1375    0.0000 H   0  0  0  0  0  0  0  0  0  0  0  0
   -5.7158   -9.9000    0.0000 C   0  0  0  0  0  0  0  0  0  0  0  0
   -6.4302  -10.3125    0.0000 H   0  0  0  0  0  0  0  0  0  0  0  0
   -5.7158   -9.0750    0.0000 C   0  0  0  0  0  0  0  0  0  0  0  0
   -6.4302   -8.6625    0.0000 C   0  0  0  0  0  0  0  0  0  0  0  0
   -6.0177   -7.9480    0.0000 H   0  0  0  0  0  0  0  0  0  0  0  0
   -7.1447   -8.2500    0.0000 H   0  0  0  0  0  0  0  0  0  0  0  0
   -6.8427   -9.3770    0.0000 H   0  0  0  0  0  0  0  0  0  0  0  0
   -5.7158   -7.4250    0.0000 H   0  0  0  0  0  0  0  0  0  0  0  0
   -3.9426   -8.5747    0.0000 H   0  0  0  0  0  0  0  0  0  0  0  0
   -3.2021   -8.5747    0.0000 H   0  0  0  0  0  0  0  0  0  0  0  0
   -2.8579   -6.6000    0.0000 C   0  0  0  0  0  0  0  0  0  0  0  0
   -3.5724   -6.1875    0.0000 H   0  0  0  0  0  0  0  0  0  0  0  0
   -2.8579   -4.9500    0.0000 C   0  0  0  0  0  0  0  0  0  0  0  0
   -3.5724   -5.3625    0.0000 O   0  0  0  0  0  0  0  0  0  0  0  0
   -4.2868   -4.9500    0.0000 C   0  0  0  0  0  0  0  0  0  0  0  0
   -3.8743   -4.2355    0.0000 H   0  0  0  0  0  0  0  0  0  0  0  0
   -5.0013   -4.5375    0.0000 H   0  0  0  0  0  0  0  0  0  0  0  0
   -4.6993   -5.6645    0.0000 H   0  0  0  0  0  0  0  0  0  0  0  0
   -2.8579   -4.1250    0.0000 C   0  0  0  0  0  0  0  0  0  0  0  0
   -3.5724   -3.7125    0.0000 H   0  0  0  0  0  0  0  0  0  0  0  0
   -2.0329   -1.6500    0.0000 H   0  0  0  0  0  0  0  0  0  0  0  0
   -2.8579   -0.8250    0.0000 H   0  0  0  0  0  0  0  0  0  0  0  0
   -3.6829   -1.6500    0.0000 H   0  0  0  0  0  0  0  0  0  0  0  0
  1  2  1  0  0  0  0
  2  3  1  0  0  0  0
  3  4  2  0  0  0  0
  3  5  1  0  0  0  0
  5  6  2  0  0  0  0
  6  7  1  0  0  0  0
  6  8  1  0  0  0  0
  8  9  1  0  0  0  0
  8 10  2  0  0  0  0
 10 11  1  0  0  0  0
 11 12  2  0  0  0  0
 12 13  1  0  0  0  0
 12 14  1  0  0  0  0
 14 15  1  0  0  0  0
 14 16  2  0  0  0  0
 16 17  1  0  0  0  0
 16 18  1  0  0  0  0
 18 19  1  0  0  0  0
 19 20  1  0  0  0  0
 20 21  2  0  0  0  0
 20 22  1  0  0  0  0
 22 23  1  0  0  0  0
 23 24  2  0  0  0  0
 24 25  1  0  0  0  0
 24 26  1  0  0  0  0
 26 27  2  0  0  0  0
 27 28  1  0  0  0  0
 27 29  1  0  0  0  0
 29 30  1  0  0  0  0
 29 31  2  0  0  0  0
 23 31  1  0  0  0  0
 31 32  1  0  0  0  0
 32 33  1  0  0  0  0
 32 34  1  0  0  0  0
 32 35  1  0  0  0  0
 22 36  1  0  0  0  0
 19 37  1  0  0  0  0
 19 38  1  0  0  0  0
 18 39  2  0  0  0  0
 11 39  1  0  0  0  0
 39 40  1  0  0  0  0
 10 41  1  0  0  0  0
 41 42  1  0  0  0  0
 42 43  1  0  0  0  0
 43 44  1  0  0  0  0
 43 45  1  0  0  0  0
 43 46  1  0  0  0  0
 41 47  2  0  0  0  0
  5 47  1  0  0  0  0
 47 48  1  0  0  0  0
  1 49  1  0  0  0  0
  1 50  1  0  0  0  0
  1 51  1  0  0  0  0
M  END
> <Potency>
12.7033086203346

> <pIC50>
4.896083150822547

> <Outcome>
Inactive

> <is_active>
0

$$$$

  Mrv1921 08232120312D          

 47 49  0  0  0  0            999 V2000
    4.2868    0.0000    0.0000 C   0  0  0  0  0  0  0  0  0  0  0  0
    5.0013   -0.4125    0.0000 C   0  0  0  0  0  0  0  0  0  0  0  0
    5.0013   -1.2375    0.0000 C   0  0  0  0  0  0  0  0  0  0  0  0
    5.7158   -1.6500    0.0000 C   0  0  0  0  0  0  0  0  0  0  0  0
    6.5404   -1.6762    0.0000 H   0  0  0  0  0  0  0  0  0  0  0  0
    5.7158   -2.4750    0.0000 C   0  0  0  0  0  0  0  0  0  0  0  0
    6.4302   -2.8875    0.0000 F   0  0  0  0  0  0  0  0  0  0  0  0
    5.0013   -2.8875    0.0000 C   0  0  0  0  0  0  0  0  0  0  0  0
    5.0013   -3.7125    0.0000 H   0  0  0  0  0  0  0  0  0  0  0  0
    4.2868   -2.4750    0.0000 C   0  0  0  0  0  0  0  0  0  0  0  0
    3.5724   -2.8875    0.0000 H   0  0  0  0  0  0  0  0  0  0  0  0
    4.2868   -1.6500    0.0000 C   0  0  0  0  0  0  0  0  0  0  0  0
    3.5724   -1.2375    0.0000 C   0  0  0  0  0  0  0  0  0  0  0  0
    2.8579   -1.6500    0.0000 C   0  0  0  0  0  0  0  0  0  0  0  0
    2.8579   -2.4750    0.0000 H   0  0  0  0  0  0  0  0  0  0  0  0
    2.1434   -1.2375    0.0000 C   0  0  0  0  0  0  0  0  0  0  0  0
    1.4289   -1.6500    0.0000 Cl  0  0  0  0  0  0  0  0  0  0  0  0
    2.1434   -0.4125    0.0000 C   0  0  0  0  0  0  0  0  0  0  0  0
    1.4289    0.0000    0.0000 H   0  0  0  0  0  0  0  0  0  0  0  0
    2.8579    0.0000    0.0000 C   0  0  0  0  0  0  0  0  0  0  0  0
    2.8579    0.8250    0.0000 C   0  0  0  0  0  0  0  0  0  0  0  0
    3.5724    1.2375    0.0000 C   0  0  0  0  0  0  0  0  0  0  0  0
    4.2868    0.8250    0.0000 O   0  0  0  0  0  0  0  0  0  0  0  0
    3.5724    2.0625    0.0000 N   0  0  0  0  0  0  0  0  0  0  0  0
    4.2868    2.4750    0.0000 C   0  0  0  0  0  0  0  0  0  0  0  0
    4.2868    3.3000    0.0000 C   0  0  0  0  0  0  0  0  0  0  0  0
    3.5724    3.7125    0.0000 H   0  0  0  0  0  0  0  0  0  0  0  0
    5.0013    3.7125    0.0000 N   0  0  0  0  0  0  0  0  0  0  0  0
    5.7158    3.3000    0.0000 C   0  0  0  0  0  0  0  0  0  0  0  0
    6.4302    3.7125    0.0000 H   0  0  0  0  0  0  0  0  0  0  0  0
    5.7158    2.4750    0.0000 C   0  0  0  0  0  0  0  0  0  0  0  0
    6.4302    2.0625    0.0000 H   0  0  0  0  0  0  0  0  0  0  0  0
    5.0013    2.0625    0.0000 C   0  0  0  0  0  0  0  0  0  0  0  0
    5.0013    1.2375    0.0000 C   0  0  0  0  0  0  0  0  0  0  0  0
    5.7765    0.9553    0.0000 H   0  0  0  0  0  0  0  0  0  0  0  0
    5.7765    1.5197    0.0000 H   0  0  0  0  0  0  0  0  0  0  0  0
    4.2868    1.6500    0.0000 H   0  0  0  0  0  0  0  0  0  0  0  0
    2.8579    2.4750    0.0000 H   0  0  0  0  0  0  0  0  0  0  0  0
    2.4045    1.5143    0.0000 H   0  0  0  0  0  0  0  0  0  0  0  0
    2.0343    0.8730    0.0000 H   0  0  0  0  0  0  0  0  0  0  0  0
    3.5724   -0.4125    0.0000 C   0  0  0  0  0  0  0  0  0  0  0  0
    2.8579   -0.8250    0.0000 H   0  0  0  0  0  0  0  0  0  0  0  0
    5.7765   -0.6947    0.0000 H   0  0  0  0  0  0  0  0  0  0  0  0
    5.7765   -0.1303    0.0000 H   0  0  0  0  0  0  0  0  0  0  0  0
    3.5724    0.4125    0.0000 H   0  0  0  0  0  0  0  0  0  0  0  0
    5.0013    0.4125    0.0000 H   0  0  0  0  0  0  0  0  0  0  0  0
    4.2868   -0.8250    0.0000 H   0  0  0  0  0  0  0  0  0  0  0  0
  1  2  1  0  0  0  0
  2  3  1  0  0  0  0
  3  4  2  0  0  0  0
  4  5  1  0  0  0  0
  4  6  1  0  0  0  0
  6  7  1  0  0  0  0
  6  8  2  0  0  0  0
  8  9  1  0  0  0  0
  8 10  1  0  0  0  0
 10 11  1  0  0  0  0
 10 12  2  0  0  0  0
  3 12  1  0  0  0  0
 12 13  1  0  0  0  0
 13 14  2  0  0  0  0
 14 15  1  0  0  0  0
 14 16  1  0  0  0  0
 16 17  1  0  0  0  0
 16 18  2  0  0  0  0
 18 19  1  0  0  0  0
 18 20  1  0  0  0  0
 20 21  1  0  0  0  0
 21 22  1  0  0  0  0
 22 23  2  0  0  0  0
 22 24  1  0  0  0  0
 24 25  1  0  0  0  0
 25 26  2  0  0  0  0
 26 27  1  0  0  0  0
 26 28  1  0  0  0  0
 28 29  2  0  0  0  0
 29 30  1  0  0  0  0
 29 31  1  0  0  0  0
 31 32  1  0  0  0  0
 31 33  2  0  0  0  0
 25 33  1  0  0  0  0
 33 34  1  0  0  0  0
 34 35  1  0  0  0  0
 34 36  1  0  0  0  0
 34 37  1  0  0  0  0
 24 38  1  0  0  0  0
 21 39  1  0  0  0  0
 21 40  1  0  0  0  0
 20 41  2  0  0  0  0
 13 41  1  0  0  0  0
 41 42  1  0  0  0  0
  2 43  1  0  0  0  0
  2 44  1  0  0  0  0
  1 45  1  0  0  0  0
  1 46  1  0  0  0  0
  1 47  1  0  0  0  0
M  END
> <Potency>
31.5625341311681

> <pIC50>
4.500828134898611

> <Outcome>
Inactive

> <is_active>
0

$$$$

  Mrv1921 08232120312D          

 44 46  0  0  0  0            999 V2000
    2.8579   -4.1250    0.0000 C   0  0  0  0  0  0  0  0  0  0  0  0
    2.8579   -4.9500    0.0000 C   0  0  0  0  0  0  0  0  0  0  0  0
    3.5724   -5.3625    0.0000 C   0  0  0  0  0  0  0  0  0  0  0  0
    4.2868   -4.9500    0.0000 H   0  0  0  0  0  0  0  0  0  0  0  0
    3.5724   -6.1875    0.0000 C   0  0  0  0  0  0  0  0  0  0  0  0
    4.2868   -6.6000    0.0000 H   0  0  0  0  0  0  0  0  0  0  0  0
    2.8579   -6.6000    0.0000 N   0  0  0  0  0  0  0  0  0  0  0  0
    2.1434   -6.1875    0.0000 C   0  0  0  0  0  0  0  0  0  0  0  0
    1.4289   -6.6000    0.0000 H   0  0  0  0  0  0  0  0  0  0  0  0
    2.1434   -5.3625    0.0000 C   0  0  0  0  0  0  0  0  0  0  0  0
    1.4289   -4.9500    0.0000 N   0  0  0  0  0  0  0  0  0  0  0  0
    0.7145   -5.3625    0.0000 C   0  0  0  0  0  0  0  0  0  0  0  0
    0.7145   -6.1875    0.0000 O   0  0  0  0  0  0  0  0  0  0  0  0
    0.0000   -4.9500    0.0000 C   0  0  0  0  0  0  0  0  0  0  0  0
   -0.7145   -5.3625    0.0000 C   0  0  0  0  0  0  0  0  0  0  0  0
   -0.7145   -6.1875    0.0000 C   0  0  0  0  0  0  0  0  0  0  0  0
    0.0000   -6.6000    0.0000 H   0  0  0  0  0  0  0  0  0  0  0  0
   -1.4289   -6.6000    0.0000 C   0  0  0  0  0  0  0  0  0  0  0  0
   -1.4289   -7.4250    0.0000 Cl  0  0  0  0  0  0  0  0  0  0  0  0
   -2.1434   -6.1875    0.0000 C   0  0  0  0  0  0  0  0  0  0  0  0
   -2.8579   -6.6000    0.0000 H   0  0  0  0  0  0  0  0  0  0  0  0
   -2.1434   -5.3625    0.0000 C   0  0  0  0  0  0  0  0  0  0  0  0
   -2.8579   -4.9500    0.0000 C   0  0  0  0  0  0  0  0  0  0  0  0
   -3.5724   -5.3625    0.0000 C   0  0  0  0  0  0  0  0  0  0  0  0
   -3.5724   -6.1875    0.0000 H   0  0  0  0  0  0  0  0  0  0  0  0
   -4.2868   -4.9500    0.0000 C   0  0  0  0  0  0  0  0  0  0  0  0
   -5.0013   -5.3625    0.0000 H   0  0  0  0  0  0  0  0  0  0  0  0
   -4.2868   -4.1250    0.0000 C   0  0  0  0  0  0  0  0  0  0  0  0
   -5.0013   -3.7125    0.0000 C   0  0  0  0  0  0  0  0  0  0  0  0
   -4.5888   -2.9980    0.0000 H   0  0  0  0  0  0  0  0  0  0  0  0
   -5.7158   -3.3000    0.0000 H   0  0  0  0  0  0  0  0  0  0  0  0
   -5.4138   -4.4270    0.0000 H   0  0  0  0  0  0  0  0  0  0  0  0
   -3.5724   -3.7125    0.0000 C   0  0  0  0  0  0  0  0  0  0  0  0
   -3.5724   -2.8875    0.0000 F   0  0  0  0  0  0  0  0  0  0  0  0
   -2.8579   -4.1250    0.0000 C   0  0  0  0  0  0  0  0  0  0  0  0
   -2.1434   -3.7125    0.0000 F   0  0  0  0  0  0  0  0  0  0  0  0
   -1.4289   -4.9500    0.0000 C   0  0  0  0  0  0  0  0  0  0  0  0
   -1.4289   -4.1250    0.0000 H   0  0  0  0  0  0  0  0  0  0  0  0
    0.3703   -4.2128    0.0000 H   0  0  0  0  0  0  0  0  0  0  0  0
   -0.3703   -4.2128    0.0000 H   0  0  0  0  0  0  0  0  0  0  0  0
    1.4289   -4.1250    0.0000 H   0  0  0  0  0  0  0  0  0  0  0  0
    3.6829   -4.1250    0.0000 H   0  0  0  0  0  0  0  0  0  0  0  0
    2.8579   -3.3000    0.0000 H   0  0  0  0  0  0  0  0  0  0  0  0
    2.0329   -4.1250    0.0000 H   0  0  0  0  0  0  0  0  0  0  0  0
  1  2  1  0  0  0  0
  2  3  2  0  0  0  0
  3  4  1  0  0  0  0
  3  5  1  0  0  0  0
  5  6  1  0  0  0  0
  5  7  2  0  0  0  0
  7  8  1  0  0  0  0
  8  9  1  0  0  0  0
  8 10  2  0  0  0  0
  2 10  1  0  0  0  0
 10 11  1  0  0  0  0
 11 12  1  0  0  0  0
 12 13  2  0  0  0  0
 12 14  1  0  0  0  0
 14 15  1  0  0  0  0
 15 16  2  0  0  0  0
 16 17  1  0  0  0  0
 16 18  1  0  0  0  0
 18 19  1  0  0  0  0
 18 20  2  0  0  0  0
 20 21  1  0  0  0  0
 20 22  1  0  0  0  0
 22 23  1  0  0  0  0
 23 24  2  0  0  0  0
 24 25  1  0  0  0  0
 24 26  1  0  0  0  0
 26 27  1  0  0  0  0
 26 28  2  0  0  0  0
 28 29  1  0  0  0  0
 29 30  1  0  0  0  0
 29 31  1  0  0  0  0
 29 32  1  0  0  0  0
 28 33  1  0  0  0  0
 33 34  1  0  0  0  0
 33 35  2  0  0  0  0
 23 35  1  0  0  0  0
 35 36  1  0  0  0  0
 22 37  2  0  0  0  0
 15 37  1  0  0  0  0
 37 38  1  0  0  0  0
 14 39  1  0  0  0  0
 14 40  1  0  0  0  0
 11 41  1  0  0  0  0
  1 42  1  0  0  0  0
  1 43  1  0  0  0  0
  1 44  1  0  0  0  0
M  END
> <Potency>
31.9195200835421

> <pIC50>
4.4959436469778336

> <Outcome>
Inactive

> <is_active>
0

$$$$

  Mrv1921 08232120312D          

 44 46  0  0  0  0            999 V2000
   -0.8212    6.8277    0.0000 C   0  0  0  0  0  0  0  0  0  0  0  0
   -0.1067    7.2402    0.0000 C   0  0  0  0  0  0  0  0  0  0  0  0
   -0.1067    8.0652    0.0000 C   0  0  0  0  0  0  0  0  0  0  0  0
   -0.8212    8.4777    0.0000 H   0  0  0  0  0  0  0  0  0  0  0  0
    0.6078    8.4777    0.0000 C   0  0  0  0  0  0  0  0  0  0  0  0
    0.6078    9.3027    0.0000 H   0  0  0  0  0  0  0  0  0  0  0  0
    1.3222    8.0652    0.0000 N   0  0  0  0  0  0  0  0  0  0  0  0
    1.3222    7.2402    0.0000 C   0  0  0  0  0  0  0  0  0  0  0  0
    2.0367    6.8277    0.0000 H   0  0  0  0  0  0  0  0  0  0  0  0
    0.6078    6.8277    0.0000 C   0  0  0  0  0  0  0  0  0  0  0  0
    0.6078    6.0027    0.0000 N   0  0  0  0  0  0  0  0  0  0  0  0
    1.3222    5.5902    0.0000 C   0  0  0  0  0  0  0  0  0  0  0  0
    2.0367    6.0027    0.0000 O   0  0  0  0  0  0  0  0  0  0  0  0
    1.3222    4.7652    0.0000 C   0  0  0  0  0  0  0  0  0  0  0  0
    2.0367    4.3527    0.0000 C   0  0  0  0  0  0  0  0  0  0  0  0
    2.7512    4.7652    0.0000 C   0  0  0  0  0  0  0  0  0  0  0  0
    2.7512    5.5902    0.0000 H   0  0  0  0  0  0  0  0  0  0  0  0
    3.4656    4.3527    0.0000 C   0  0  0  0  0  0  0  0  0  0  0  0
    4.1801    4.7652    0.0000 Cl  0  0  0  0  0  0  0  0  0  0  0  0
    3.4656    3.5277    0.0000 C   0  0  0  0  0  0  0  0  0  0  0  0
    4.1801    3.1152    0.0000 H   0  0  0  0  0  0  0  0  0  0  0  0
    2.7512    3.1152    0.0000 C   0  0  0  0  0  0  0  0  0  0  0  0
    2.7512    2.2902    0.0000 C   0  0  0  0  0  0  0  0  0  0  0  0
    3.4186    1.8053    0.0000 C   0  0  0  0  0  0  0  0  0  0  0  0
    4.2032    2.0602    0.0000 H   0  0  0  0  0  0  0  0  0  0  0  0
    3.1637    1.0206    0.0000 N   0  0  0  0  0  0  0  0  0  0  0  0
    2.3387    1.0206    0.0000 N   0  0  0  0  0  0  0  0  0  0  0  0
    1.8538    0.3532    0.0000 C   0  0  0  0  0  0  0  0  0  0  0  0
    1.1863    0.8381    0.0000 H   0  0  0  0  0  0  0  0  0  0  0  0
    1.3688   -0.3142    0.0000 H   0  0  0  0  0  0  0  0  0  0  0  0
    2.5212   -0.1317    0.0000 H   0  0  0  0  0  0  0  0  0  0  0  0
    2.0837    1.8053    0.0000 C   0  0  0  0  0  0  0  0  0  0  0  0
    1.2991    2.0602    0.0000 C   0  0  0  0  0  0  0  0  0  0  0  0
    1.1276    2.8672    0.0000 F   0  0  0  0  0  0  0  0  0  0  0  0
    0.6860    1.5082    0.0000 F   0  0  0  0  0  0  0  0  0  0  0  0
    1.9122    2.6122    0.0000 H   0  0  0  0  0  0  0  0  0  0  0  0
    2.0367    3.5277    0.0000 C   0  0  0  0  0  0  0  0  0  0  0  0
    1.2136    3.5834    0.0000 H   0  0  0  0  0  0  0  0  0  0  0  0
    0.4986    4.7172    0.0000 H   0  0  0  0  0  0  0  0  0  0  0  0
    0.8689    4.0759    0.0000 H   0  0  0  0  0  0  0  0  0  0  0  0
   -0.1067    5.5902    0.0000 H   0  0  0  0  0  0  0  0  0  0  0  0
   -1.2337    7.5422    0.0000 H   0  0  0  0  0  0  0  0  0  0  0  0
   -1.5356    6.4152    0.0000 H   0  0  0  0  0  0  0  0  0  0  0  0
   -0.4087    6.1132    0.0000 H   0  0  0  0  0  0  0  0  0  0  0  0
  1  2  1  0  0  0  0
  2  3  2  0  0  0  0
  3  4  1  0  0  0  0
  3  5  1  0  0  0  0
  5  6  1  0  0  0  0
  5  7  2  0  0  0  0
  7  8  1  0  0  0  0
  8  9  1  0  0  0  0
  8 10  2  0  0  0  0
  2 10  1  0  0  0  0
 10 11  1  0  0  0  0
 11 12  1  0  0  0  0
 12 13  2  0  0  0  0
 12 14  1  0  0  0  0
 14 15  1  0  0  0  0
 15 16  2  0  0  0  0
 16 17  1  0  0  0  0
 16 18  1  0  0  0  0
 18 19  1  0  0  0  0
 18 20  2  0  0  0  0
 20 21  1  0  0  0  0
 20 22  1  0  0  0  0
 22 23  1  0  0  0  0
 23 24  1  0  0  0  0
 24 25  1  0  0  0  0
 24 26  2  0  0  0  0
 26 27  1  0  0  0  0
 27 28  1  0  0  0  0
 28 29  1  0  0  0  0
 28 30  1  0  0  0  0
 28 31  1  0  0  0  0
 27 32  1  0  0  0  0
 23 32  2  0  0  0  0
 32 33  1  0  0  0  0
 33 34  1  0  0  0  0
 33 35  1  0  0  0  0
 33 36  1  0  0  0  0
 22 37  2  0  0  0  0
 15 37  1  0  0  0  0
 37 38  1  0  0  0  0
 14 39  1  0  0  0  0
 14 40  1  0  0  0  0
 11 41  1  0  0  0  0
  1 42  1  0  0  0  0
  1 43  1  0  0  0  0
  1 44  1  0  0  0  0
M  END
> <Potency>
19.2678988431931

> <pIC50>
4.715165642405266

> <Outcome>
Inactive

> <is_active>
0

$$$$

  Mrv1921 08232120312D          

 48 50  0  0  0  0            999 V2000
    3.5724   -5.3625    0.0000 C   0  0  0  0  0  0  0  0  0  0  0  0
    3.5724   -6.1875    0.0000 C   0  0  0  0  0  0  0  0  0  0  0  0
    4.2868   -6.6000    0.0000 C   0  0  0  0  0  0  0  0  0  0  0  0
    5.0013   -6.1875    0.0000 H   0  0  0  0  0  0  0  0  0  0  0  0
    4.2868   -7.4250    0.0000 C   0  0  0  0  0  0  0  0  0  0  0  0
    5.0013   -7.8375    0.0000 H   0  0  0  0  0  0  0  0  0  0  0  0
    3.5724   -7.8375    0.0000 N   0  0  0  0  0  0  0  0  0  0  0  0
    2.8579   -7.4250    0.0000 C   0  0  0  0  0  0  0  0  0  0  0  0
    2.1434   -7.8375    0.0000 H   0  0  0  0  0  0  0  0  0  0  0  0
    2.8579   -6.6000    0.0000 C   0  0  0  0  0  0  0  0  0  0  0  0
    2.1434   -6.1875    0.0000 N   0  0  0  0  0  0  0  0  0  0  0  0
    1.4289   -6.6000    0.0000 C   0  0  0  0  0  0  0  0  0  0  0  0
    1.4289   -7.4250    0.0000 O   0  0  0  0  0  0  0  0  0  0  0  0
    0.7145   -6.1875    0.0000 C   0  0  0  0  0  0  0  0  0  0  0  0
    0.0000   -6.6000    0.0000 C   0  0  0  0  0  0  0  0  0  0  0  0
    0.0000   -7.4250    0.0000 C   0  0  0  0  0  0  0  0  0  0  0  0
    0.7145   -7.8375    0.0000 H   0  0  0  0  0  0  0  0  0  0  0  0
   -0.7145   -7.8375    0.0000 C   0  0  0  0  0  0  0  0  0  0  0  0
   -0.7145   -8.6625    0.0000 Cl  0  0  0  0  0  0  0  0  0  0  0  0
   -1.4289   -7.4250    0.0000 C   0  0  0  0  0  0  0  0  0  0  0  0
   -1.6425   -8.2219    0.0000 H   0  0  0  0  0  0  0  0  0  0  0  0
   -1.4289   -6.6000    0.0000 C   0  0  0  0  0  0  0  0  0  0  0  0
   -2.1434   -6.1875    0.0000 C   0  0  0  0  0  0  0  0  0  0  0  0
   -2.8579   -6.6000    0.0000 C   0  0  0  0  0  0  0  0  0  0  0  0
   -3.5724   -6.1875    0.0000 C   0  0  0  0  0  0  0  0  0  0  0  0
   -4.2868   -6.6000    0.0000 C   0  0  0  0  0  0  0  0  0  0  0  0
   -4.2868   -7.4250    0.0000 H   0  0  0  0  0  0  0  0  0  0  0  0
   -5.0013   -6.1875    0.0000 C   0  0  0  0  0  0  0  0  0  0  0  0
   -5.7158   -6.6000    0.0000 H   0  0  0  0  0  0  0  0  0  0  0  0
   -5.0013   -5.3625    0.0000 C   0  0  0  0  0  0  0  0  0  0  0  0
   -5.7158   -4.9500    0.0000 H   0  0  0  0  0  0  0  0  0  0  0  0
   -4.2868   -4.9500    0.0000 C   0  0  0  0  0  0  0  0  0  0  0  0
   -4.2868   -4.1250    0.0000 H   0  0  0  0  0  0  0  0  0  0  0  0
   -3.5724   -5.3625    0.0000 C   0  0  0  0  0  0  0  0  0  0  0  0
   -2.8579   -4.9500    0.0000 H   0  0  0  0  0  0  0  0  0  0  0  0
   -2.8579   -7.4250    0.0000 C   0  0  0  0  0  0  0  0  0  0  0  0
   -2.8579   -8.2500    0.0000 F   0  0  0  0  0  0  0  0  0  0  0  0
   -3.6829   -7.4250    0.0000 F   0  0  0  0  0  0  0  0  0  0  0  0
   -2.0329   -7.4250    0.0000 F   0  0  0  0  0  0  0  0  0  0  0  0
   -2.1434   -5.3625    0.0000 H   0  0  0  0  0  0  0  0  0  0  0  0
   -0.7145   -6.1875    0.0000 C   0  0  0  0  0  0  0  0  0  0  0  0
   -0.7145   -5.3625    0.0000 H   0  0  0  0  0  0  0  0  0  0  0  0
    1.0847   -5.4503    0.0000 H   0  0  0  0  0  0  0  0  0  0  0  0
    0.3442   -5.4503    0.0000 H   0  0  0  0  0  0  0  0  0  0  0  0
    2.1434   -5.3625    0.0000 H   0  0  0  0  0  0  0  0  0  0  0  0
    4.3974   -5.3625    0.0000 H   0  0  0  0  0  0  0  0  0  0  0  0
    3.5724   -4.5375    0.0000 H   0  0  0  0  0  0  0  0  0  0  0  0
    2.7474   -5.3625    0.0000 H   0  0  0  0  0  0  0  0  0  0  0  0
  1  2  1  0  0  0  0
  2  3  2  0  0  0  0
  3  4  1  0  0  0  0
  3  5  1  0  0  0  0
  5  6  1  0  0  0  0
  5  7  2  0  0  0  0
  7  8  1  0  0  0  0
  8  9  1  0  0  0  0
  8 10  2  0  0  0  0
  2 10  1  0  0  0  0
 10 11  1  0  0  0  0
 11 12  1  0  0  0  0
 12 13  2  0  0  0  0
 12 14  1  0  0  0  0
 14 15  1  0  0  0  0
 15 16  2  0  0  0  0
 16 17  1  0  0  0  0
 16 18  1  0  0  0  0
 18 19  1  0  0  0  0
 18 20  2  0  0  0  0
 20 21  1  0  0  0  0
 20 22  1  0  0  0  0
 22 23  1  0  0  0  0
 23 24  2  0  0  0  0
 24 25  1  0  0  0  0
 25 26  2  0  0  0  0
 26 27  1  0  0  0  0
 26 28  1  0  0  0  0
 28 29  1  0  0  0  0
 28 30  2  0  0  0  0
 30 31  1  0  0  0  0
 30 32  1  0  0  0  0
 32 33  1  0  0  0  0
 32 34  2  0  0  0  0
 25 34  1  0  0  0  0
 34 35  1  0  0  0  0
 24 36  1  0  0  0  0
 36 37  1  0  0  0  0
 36 38  1  0  0  0  0
 36 39  1  0  0  0  0
 23 40  1  4  0  0  0
 22 41  2  0  0  0  0
 15 41  1  0  0  0  0
 41 42  1  0  0  0  0
 14 43  1  0  0  0  0
 14 44  1  0  0  0  0
 11 45  1  0  0  0  0
  1 46  1  0  0  0  0
  1 47  1  0  0  0  0
  1 48  1  0  0  0  0
M  END
> <Potency>
22.7683429872964

> <pIC50>
4.6426685749034915

> <Outcome>
Inactive

> <is_active>
0

$$$$

  Mrv1921 08232120312D          

 47 49  0  0  0  0            999 V2000
   -2.2501    1.1759    0.0000 C   0  0  0  0  0  0  0  0  0  0  0  0
   -2.2501    2.0009    0.0000 C   0  0  0  0  0  0  0  0  0  0  0  0
   -2.9646    2.4134    0.0000 C   0  0  0  0  0  0  0  0  0  0  0  0
   -3.6791    2.0009    0.0000 H   0  0  0  0  0  0  0  0  0  0  0  0
   -2.9646    3.2384    0.0000 C   0  0  0  0  0  0  0  0  0  0  0  0
   -3.6791    3.6509    0.0000 H   0  0  0  0  0  0  0  0  0  0  0  0
   -2.2501    3.6509    0.0000 N   0  0  0  0  0  0  0  0  0  0  0  0
   -1.5356    3.2384    0.0000 C   0  0  0  0  0  0  0  0  0  0  0  0
   -0.8212    3.6509    0.0000 H   0  0  0  0  0  0  0  0  0  0  0  0
   -1.5356    2.4134    0.0000 C   0  0  0  0  0  0  0  0  0  0  0  0
   -0.8212    2.0009    0.0000 N   0  0  0  0  0  0  0  0  0  0  0  0
   -0.1067    2.4134    0.0000 C   0  0  0  0  0  0  0  0  0  0  0  0
   -0.1067    3.2384    0.0000 O   0  0  0  0  0  0  0  0  0  0  0  0
    0.6078    2.0009    0.0000 C   0  0  0  0  0  0  0  0  0  0  0  0
    1.3222    2.4134    0.0000 C   0  0  0  0  0  0  0  0  0  0  0  0
    1.3222    3.2384    0.0000 C   0  0  0  0  0  0  0  0  0  0  0  0
    0.6078    3.6509    0.0000 H   0  0  0  0  0  0  0  0  0  0  0  0
    2.0367    3.6509    0.0000 C   0  0  0  0  0  0  0  0  0  0  0  0
    2.0367    4.4759    0.0000 Cl  0  0  0  0  0  0  0  0  0  0  0  0
    2.7512    3.2384    0.0000 C   0  0  0  0  0  0  0  0  0  0  0  0
    3.4656    3.6509    0.0000 H   0  0  0  0  0  0  0  0  0  0  0  0
    2.7512    2.4134    0.0000 C   0  0  0  0  0  0  0  0  0  0  0  0
    3.4656    2.0009    0.0000 N   0  0  0  0  0  0  0  0  0  0  0  0
    3.4656    1.1759    0.0000 C   0  0  0  0  0  0  0  0  0  0  0  0
    4.1331    0.6910    0.0000 C   0  0  0  0  0  0  0  0  0  0  0  0
    4.9456    0.5477    0.0000 H   0  0  0  0  0  0  0  0  0  0  0  0
    4.7062    1.2844    0.0000 H   0  0  0  0  0  0  0  0  0  0  0  0
    3.8781   -0.0937    0.0000 C   0  0  0  0  0  0  0  0  0  0  0  0
    3.9930   -0.9106    0.0000 H   0  0  0  0  0  0  0  0  0  0  0  0
    4.6197   -0.4553    0.0000 H   0  0  0  0  0  0  0  0  0  0  0  0
    3.0531   -0.0937    0.0000 C   0  0  0  0  0  0  0  0  0  0  0  0
    2.3116   -0.4553    0.0000 H   0  0  0  0  0  0  0  0  0  0  0  0
    2.9383   -0.9106    0.0000 H   0  0  0  0  0  0  0  0  0  0  0  0
    2.7982    0.6910    0.0000 C   0  0  0  0  0  0  0  0  0  0  0  0
    2.0136    0.9459    0.0000 O   0  0  0  0  0  0  0  0  0  0  0  0
    1.2298    1.2033    0.0000 H   0  0  0  0  0  0  0  0  0  0  0  0
    2.2148    0.1076    0.0000 H   0  0  0  0  0  0  0  0  0  0  0  0
    2.7306    1.5504    0.0000 H   0  0  0  0  0  0  0  0  0  0  0  0
    4.1801    2.4134    0.0000 H   0  0  0  0  0  0  0  0  0  0  0  0
    2.0367    2.0009    0.0000 C   0  0  0  0  0  0  0  0  0  0  0  0
    1.6057    1.2974    0.0000 H   0  0  0  0  0  0  0  0  0  0  0  0
    0.2375    1.2636    0.0000 H   0  0  0  0  0  0  0  0  0  0  0  0
    0.9780    1.2636    0.0000 H   0  0  0  0  0  0  0  0  0  0  0  0
   -0.8212    1.1759    0.0000 H   0  0  0  0  0  0  0  0  0  0  0  0
   -3.0751    1.1759    0.0000 H   0  0  0  0  0  0  0  0  0  0  0  0
   -2.2501    0.3509    0.0000 H   0  0  0  0  0  0  0  0  0  0  0  0
   -1.4251    1.1759    0.0000 H   0  0  0  0  0  0  0  0  0  0  0  0
  1  2  1  0  0  0  0
  2  3  2  0  0  0  0
  3  4  1  0  0  0  0
  3  5  1  0  0  0  0
  5  6  1  0  0  0  0
  5  7  2  0  0  0  0
  7  8  1  0  0  0  0
  8  9  1  0  0  0  0
  8 10  2  0  0  0  0
  2 10  1  0  0  0  0
 10 11  1  0  0  0  0
 11 12  1  0  0  0  0
 12 13  2  0  0  0  0
 12 14  1  0  0  0  0
 14 15  1  0  0  0  0
 15 16  2  0  0  0  0
 16 17  1  0  0  0  0
 16 18  1  0  0  0  0
 18 19  1  0  0  0  0
 18 20  2  0  0  0  0
 20 21  1  0  0  0  0
 20 22  1  0  0  0  0
 22 23  1  0  0  0  0
 23 24  1  0  0  0  0
 24 25  1  0  0  0  0
 25 26  1  0  0  0  0
 25 27  1  0  0  0  0
 25 28  1  0  0  0  0
 28 29  1  0  0  0  0
 28 30  1  0  0  0  0
 28 31  1  0  0  0  0
 31 32  1  0  0  0  0
 31 33  1  0  0  0  0
 31 34  1  0  0  0  0
 24 34  1  0  0  0  0
 34 35  1  0  0  0  0
 35 36  1  0  0  0  0
 34 37  1  0  0  0  0
 24 38  1  0  0  0  0
 23 39  1  0  0  0  0
 22 40  2  0  0  0  0
 15 40  1  0  0  0  0
 40 41  1  0  0  0  0
 14 42  1  0  0  0  0
 14 43  1  0  0  0  0
 11 44  1  0  0  0  0
  1 45  1  0  0  0  0
  1 46  1  0  0  0  0
  1 47  1  0  0  0  0
M  END
> <Potency>
19.7024998044106

> <pIC50>
4.70547866813353

> <Outcome>
Inactive

> <is_active>
0

$$$$

  Mrv1921 08232120312D          

 47 49  0  0  0  0            999 V2000
    4.2868    9.6536    0.0000 C   0  0  0  0  0  0  0  0  0  0  0  0
    5.0013    9.2411    0.0000 C   0  0  0  0  0  0  0  0  0  0  0  0
    5.7158    9.6536    0.0000 C   0  0  0  0  0  0  0  0  0  0  0  0
    5.7158   10.4786    0.0000 H   0  0  0  0  0  0  0  0  0  0  0  0
    6.4302    9.2411    0.0000 C   0  0  0  0  0  0  0  0  0  0  0  0
    7.1447    9.6536    0.0000 H   0  0  0  0  0  0  0  0  0  0  0  0
    6.4302    8.4161    0.0000 N   0  0  0  0  0  0  0  0  0  0  0  0
    5.7158    8.0036    0.0000 C   0  0  0  0  0  0  0  0  0  0  0  0
    5.7158    7.1786    0.0000 H   0  0  0  0  0  0  0  0  0  0  0  0
    5.0013    8.4161    0.0000 C   0  0  0  0  0  0  0  0  0  0  0  0
    4.2868    8.0036    0.0000 N   0  0  0  0  0  0  0  0  0  0  0  0
    4.2868    7.1786    0.0000 C   0  0  0  0  0  0  0  0  0  0  0  0
    5.0013    6.7661    0.0000 O   0  0  0  0  0  0  0  0  0  0  0  0
    3.5724    6.7661    0.0000 C   0  0  0  0  0  0  0  0  0  0  0  0
    3.5724    5.9411    0.0000 C   0  0  0  0  0  0  0  0  0  0  0  0
    4.2868    5.5286    0.0000 C   0  0  0  0  0  0  0  0  0  0  0  0
    5.0013    5.9411    0.0000 H   0  0  0  0  0  0  0  0  0  0  0  0
    4.2868    4.7036    0.0000 C   0  0  0  0  0  0  0  0  0  0  0  0
    5.0013    4.2911    0.0000 Cl  0  0  0  0  0  0  0  0  0  0  0  0
    3.5724    4.2911    0.0000 C   0  0  0  0  0  0  0  0  0  0  0  0
    3.5724    3.4661    0.0000 H   0  0  0  0  0  0  0  0  0  0  0  0
    2.8579    4.7036    0.0000 C   0  0  0  0  0  0  0  0  0  0  0  0
    2.1434    4.2911    0.0000 N   0  0  0  0  0  0  0  0  0  0  0  0
    2.1434    3.4661    0.0000 C   0  0  0  0  0  0  0  0  0  0  0  0
    2.8109    2.9812    0.0000 C   0  0  0  0  0  0  0  0  0  0  0  0
    3.4631    2.4760    0.0000 H   0  0  0  0  0  0  0  0  0  0  0  0
    2.8361    3.8058    0.0000 H   0  0  0  0  0  0  0  0  0  0  0  0
    2.5559    2.1965    0.0000 C   0  0  0  0  0  0  0  0  0  0  0  0
    2.3655    1.3938    0.0000 H   0  0  0  0  0  0  0  0  0  0  0  0
    2.9742    1.4854    0.0000 H   0  0  0  0  0  0  0  0  0  0  0  0
    1.7309    2.1965    0.0000 C   0  0  0  0  0  0  0  0  0  0  0  0
    1.8171    1.3760    0.0000 F   0  0  0  0  0  0  0  0  0  0  0  0
    0.9239    2.0250    0.0000 F   0  0  0  0  0  0  0  0  0  0  0  0
    1.4760    2.9812    0.0000 C   0  0  0  0  0  0  0  0  0  0  0  0
    0.6914    3.2361    0.0000 O   0  0  0  0  0  0  0  0  0  0  0  0
   -0.0925    3.4935    0.0000 H   0  0  0  0  0  0  0  0  0  0  0  0
    0.8926    2.3978    0.0000 H   0  0  0  0  0  0  0  0  0  0  0  0
    1.4083    3.8406    0.0000 H   0  0  0  0  0  0  0  0  0  0  0  0
    1.4289    4.7036    0.0000 H   0  0  0  0  0  0  0  0  0  0  0  0
    2.8579    5.5286    0.0000 C   0  0  0  0  0  0  0  0  0  0  0  0
    2.1434    5.9411    0.0000 H   0  0  0  0  0  0  0  0  0  0  0  0
    3.1190    7.4554    0.0000 H   0  0  0  0  0  0  0  0  0  0  0  0
    2.7488    6.8140    0.0000 H   0  0  0  0  0  0  0  0  0  0  0  0
    3.5724    8.4161    0.0000 H   0  0  0  0  0  0  0  0  0  0  0  0
    4.6993   10.3680    0.0000 H   0  0  0  0  0  0  0  0  0  0  0  0
    3.5724   10.0661    0.0000 H   0  0  0  0  0  0  0  0  0  0  0  0
    3.8743    8.9391    0.0000 H   0  0  0  0  0  0  0  0  0  0  0  0
  1  2  1  0  0  0  0
  2  3  2  0  0  0  0
  3  4  1  0  0  0  0
  3  5  1  0  0  0  0
  5  6  1  0  0  0  0
  5  7  2  0  0  0  0
  7  8  1  0  0  0  0
  8  9  1  0  0  0  0
  8 10  2  0  0  0  0
  2 10  1  0  0  0  0
 10 11  1  0  0  0  0
 11 12  1  0  0  0  0
 12 13  2  0  0  0  0
 12 14  1  0  0  0  0
 14 15  1  0  0  0  0
 15 16  2  0  0  0  0
 16 17  1  0  0  0  0
 16 18  1  0  0  0  0
 18 19  1  0  0  0  0
 18 20  2  0  0  0  0
 20 21  1  0  0  0  0
 20 22  1  0  0  0  0
 22 23  1  0  0  0  0
 23 24  1  0  0  0  0
 24 25  1  0  0  0  0
 25 26  1  0  0  0  0
 25 27  1  0  0  0  0
 25 28  1  0  0  0  0
 28 29  1  0  0  0  0
 28 30  1  0  0  0  0
 28 31  1  0  0  0  0
 31 32  1  0  0  0  0
 31 33  1  0  0  0  0
 31 34  1  0  0  0  0
 24 34  1  0  0  0  0
 34 35  1  0  0  0  0
 35 36  1  0  0  0  0
 34 37  1  0  0  0  0
 24 38  1  0  0  0  0
 23 39  1  0  0  0  0
 22 40  2  0  0  0  0
 15 40  1  0  0  0  0
 40 41  1  0  0  0  0
 14 42  1  0  0  0  0
 14 43  1  0  0  0  0
 11 44  1  0  0  0  0
  1 45  1  0  0  0  0
  1 46  1  0  0  0  0
  1 47  1  0  0  0  0
M  END
> <Potency>
23.0317714669393

> <pIC50>
4.637672657401405

> <Outcome>
Inactive

> <is_active>
0

$$$$

  Mrv1921 08232120312D          

 43 45  0  0  0  0            999 V2000
    4.2868    9.2026    0.0000 C   0  0  0  0  0  0  0  0  0  0  0  0
    5.0013    8.7901    0.0000 C   0  0  0  0  0  0  0  0  0  0  0  0
    5.7158    9.2026    0.0000 C   0  0  0  0  0  0  0  0  0  0  0  0
    5.7158   10.0276    0.0000 H   0  0  0  0  0  0  0  0  0  0  0  0
    6.4302    8.7901    0.0000 C   0  0  0  0  0  0  0  0  0  0  0  0
    7.1447    9.2026    0.0000 H   0  0  0  0  0  0  0  0  0  0  0  0
    6.4302    7.9651    0.0000 N   0  0  0  0  0  0  0  0  0  0  0  0
    5.7158    7.5526    0.0000 C   0  0  0  0  0  0  0  0  0  0  0  0
    5.7158    6.7276    0.0000 H   0  0  0  0  0  0  0  0  0  0  0  0
    5.0013    7.9651    0.0000 C   0  0  0  0  0  0  0  0  0  0  0  0
    4.2868    7.5526    0.0000 N   0  0  0  0  0  0  0  0  0  0  0  0
    4.2868    6.7276    0.0000 C   0  0  0  0  0  0  0  0  0  0  0  0
    5.0013    6.3151    0.0000 O   0  0  0  0  0  0  0  0  0  0  0  0
    3.5724    6.3151    0.0000 C   0  0  0  0  0  0  0  0  0  0  0  0
    3.5724    5.4901    0.0000 C   0  0  0  0  0  0  0  0  0  0  0  0
    4.2868    5.0776    0.0000 C   0  0  0  0  0  0  0  0  0  0  0  0
    5.0013    5.4901    0.0000 H   0  0  0  0  0  0  0  0  0  0  0  0
    4.2868    4.2526    0.0000 C   0  0  0  0  0  0  0  0  0  0  0  0
    5.0013    3.8401    0.0000 Cl  0  0  0  0  0  0  0  0  0  0  0  0
    3.5724    3.8401    0.0000 C   0  0  0  0  0  0  0  0  0  0  0  0
    3.5724    3.0151    0.0000 H   0  0  0  0  0  0  0  0  0  0  0  0
    2.8579    4.2526    0.0000 C   0  0  0  0  0  0  0  0  0  0  0  0
    2.1434    3.8401    0.0000 N   0  0  0  0  0  0  0  0  0  0  0  0
    2.1434    3.0151    0.0000 C   0  0  0  0  0  0  0  0  0  0  0  0
    2.5559    2.3007    0.0000 C   0  0  0  0  0  0  0  0  0  0  0  0
    2.9262    1.5634    0.0000 H   0  0  0  0  0  0  0  0  0  0  0  0
    3.3795    2.3486    0.0000 H   0  0  0  0  0  0  0  0  0  0  0  0
    1.7309    2.3007    0.0000 C   0  0  0  0  0  0  0  0  0  0  0  0
    1.0164    1.8882    0.0000 C   0  0  0  0  0  0  0  0  0  0  0  0
    0.3020    1.4757    0.0000 F   0  0  0  0  0  0  0  0  0  0  0  0
    0.6039    2.6026    0.0000 F   0  0  0  0  0  0  0  0  0  0  0  0
    1.4289    1.1737    0.0000 F   0  0  0  0  0  0  0  0  0  0  0  0
    1.1475    2.8840    0.0000 H   0  0  0  0  0  0  0  0  0  0  0  0
    1.3465    3.2287    0.0000 H   0  0  0  0  0  0  0  0  0  0  0  0
    1.4289    4.2526    0.0000 H   0  0  0  0  0  0  0  0  0  0  0  0
    2.8579    5.0776    0.0000 C   0  0  0  0  0  0  0  0  0  0  0  0
    2.1434    5.4901    0.0000 H   0  0  0  0  0  0  0  0  0  0  0  0
    3.1190    7.0044    0.0000 H   0  0  0  0  0  0  0  0  0  0  0  0
    2.7488    6.3631    0.0000 H   0  0  0  0  0  0  0  0  0  0  0  0
    3.5724    7.9651    0.0000 H   0  0  0  0  0  0  0  0  0  0  0  0
    4.6993    9.9171    0.0000 H   0  0  0  0  0  0  0  0  0  0  0  0
    3.5724    9.6151    0.0000 H   0  0  0  0  0  0  0  0  0  0  0  0
    3.8743    8.4882    0.0000 H   0  0  0  0  0  0  0  0  0  0  0  0
  1  2  1  0  0  0  0
  2  3  2  0  0  0  0
  3  4  1  0  0  0  0
  3  5  1  0  0  0  0
  5  6  1  0  0  0  0
  5  7  2  0  0  0  0
  7  8  1  0  0  0  0
  8  9  1  0  0  0  0
  8 10  2  0  0  0  0
  2 10  1  0  0  0  0
 10 11  1  0  0  0  0
 11 12  1  0  0  0  0
 12 13  2  0  0  0  0
 12 14  1  0  0  0  0
 14 15  1  0  0  0  0
 15 16  2  0  0  0  0
 16 17  1  0  0  0  0
 16 18  1  0  0  0  0
 18 19  1  0  0  0  0
 18 20  2  0  0  0  0
 20 21  1  0  0  0  0
 20 22  1  0  0  0  0
 22 23  1  0  0  0  0
 23 24  1  0  0  0  0
 24 25  1  0  0  0  0
 25 26  1  0  0  0  0
 25 27  1  0  0  0  0
 25 28  1  0  0  0  0
 24 28  1  0  0  0  0
 28 29  1  0  0  0  0
 29 30  1  0  0  0  0
 29 31  1  0  0  0  0
 29 32  1  0  0  0  0
 28 33  1  0  0  0  0
 24 34  1  0  0  0  0
 23 35  1  0  0  0  0
 22 36  2  0  0  0  0
 15 36  1  0  0  0  0
 36 37  1  0  0  0  0
 14 38  1  0  0  0  0
 14 39  1  0  0  0  0
 11 40  1  0  0  0  0
  1 41  1  0  0  0  0
  1 42  1  0  0  0  0
  1 43  1  0  0  0  0
M  END
> <Potency>
25.3164231365994

> <pIC50>
4.59659765417483

> <Outcome>
Inactive

> <is_active>
0

$$$$

  Mrv1921 08232120312D          

 52 54  0  0  0  0            999 V2000
   -5.4691   -0.5741    0.0000 C   0  0  0  0  0  0  0  0  0  0  0  0
   -5.4691   -1.3991    0.0000 C   0  0  0  0  0  0  0  0  0  0  0  0
   -4.7546   -1.8116    0.0000 C   0  0  0  0  0  0  0  0  0  0  0  0
   -4.0401   -1.3991    0.0000 H   0  0  0  0  0  0  0  0  0  0  0  0
   -4.7546   -2.6366    0.0000 C   0  0  0  0  0  0  0  0  0  0  0  0
   -4.0401   -3.0491    0.0000 H   0  0  0  0  0  0  0  0  0  0  0  0
   -5.4691   -3.0491    0.0000 N   0  0  0  0  0  0  0  0  0  0  0  0
   -6.1835   -2.6366    0.0000 C   0  0  0  0  0  0  0  0  0  0  0  0
   -6.8980   -3.0491    0.0000 H   0  0  0  0  0  0  0  0  0  0  0  0
   -6.1835   -1.8116    0.0000 C   0  0  0  0  0  0  0  0  0  0  0  0
   -6.8980   -1.3991    0.0000 N   0  0  0  0  0  0  0  0  0  0  0  0
   -7.6125   -1.8116    0.0000 C   0  0  0  0  0  0  0  0  0  0  0  0
   -7.6125   -2.6366    0.0000 O   0  0  0  0  0  0  0  0  0  0  0  0
   -8.3269   -1.3991    0.0000 C   0  0  0  0  0  0  0  0  0  0  0  0
   -9.0414   -1.8116    0.0000 C   0  0  0  0  0  0  0  0  0  0  0  0
   -9.0414   -2.6366    0.0000 C   0  0  0  0  0  0  0  0  0  0  0  0
   -8.3269   -3.0491    0.0000 H   0  0  0  0  0  0  0  0  0  0  0  0
   -9.7559   -3.0491    0.0000 C   0  0  0  0  0  0  0  0  0  0  0  0
   -9.7559   -3.8741    0.0000 Cl  0  0  0  0  0  0  0  0  0  0  0  0
  -10.4704   -2.6366    0.0000 C   0  0  0  0  0  0  0  0  0  0  0  0
  -10.7668   -3.4065    0.0000 H   0  0  0  0  0  0  0  0  0  0  0  0
  -10.4704   -1.8116    0.0000 C   0  0  0  0  0  0  0  0  0  0  0  0
  -11.1848   -1.3991    0.0000 N   0  0  0  0  0  0  0  0  0  0  0  0
  -11.8993   -1.8116    0.0000 C   0  0  0  0  0  0  0  0  0  0  0  0
  -12.1815   -1.0364    0.0000 C   0  0  0  0  0  0  0  0  0  0  0  0
  -11.4062   -0.7542    0.0000 H   0  0  0  0  0  0  0  0  0  0  0  0
  -12.4636   -0.2612    0.0000 H   0  0  0  0  0  0  0  0  0  0  0  0
  -12.9567   -1.3186    0.0000 H   0  0  0  0  0  0  0  0  0  0  0  0
  -11.3690   -2.4436    0.0000 C   0  0  0  0  0  0  0  0  0  0  0  0
  -10.9433   -1.7369    0.0000 H   0  0  0  0  0  0  0  0  0  0  0  0
  -12.1815   -2.5869    0.0000 H   0  0  0  0  0  0  0  0  0  0  0  0
  -11.6512   -3.2189    0.0000 C   0  0  0  0  0  0  0  0  0  0  0  0
  -12.0299   -3.9518    0.0000 H   0  0  0  0  0  0  0  0  0  0  0  0
  -11.2980   -3.9645    0.0000 H   0  0  0  0  0  0  0  0  0  0  0  0
  -12.4636   -3.3621    0.0000 C   0  0  0  0  0  0  0  0  0  0  0  0
  -12.1815   -4.1374    0.0000 F   0  0  0  0  0  0  0  0  0  0  0  0
  -13.1781   -3.7746    0.0000 F   0  0  0  0  0  0  0  0  0  0  0  0
  -12.9939   -2.7302    0.0000 C   0  0  0  0  0  0  0  0  0  0  0  0
  -13.7843   -2.4935    0.0000 H   0  0  0  0  0  0  0  0  0  0  0  0
  -13.6557   -3.2228    0.0000 H   0  0  0  0  0  0  0  0  0  0  0  0
  -12.7118   -1.9549    0.0000 C   0  0  0  0  0  0  0  0  0  0  0  0
  -13.5367   -1.9625    0.0000 H   0  0  0  0  0  0  0  0  0  0  0  0
  -12.3058   -1.2367    0.0000 H   0  0  0  0  0  0  0  0  0  0  0  0
  -11.1848   -0.5741    0.0000 H   0  0  0  0  0  0  0  0  0  0  0  0
   -9.7559   -1.3991    0.0000 C   0  0  0  0  0  0  0  0  0  0  0  0
   -9.7559   -0.5741    0.0000 H   0  0  0  0  0  0  0  0  0  0  0  0
   -7.9567   -0.6619    0.0000 H   0  0  0  0  0  0  0  0  0  0  0  0
   -8.6972   -0.6619    0.0000 H   0  0  0  0  0  0  0  0  0  0  0  0
   -6.8980   -0.5741    0.0000 H   0  0  0  0  0  0  0  0  0  0  0  0
   -4.6441   -0.5741    0.0000 H   0  0  0  0  0  0  0  0  0  0  0  0
   -5.4691    0.2509    0.0000 H   0  0  0  0  0  0  0  0  0  0  0  0
   -6.2941   -0.5741    0.0000 H   0  0  0  0  0  0  0  0  0  0  0  0
  1  2  1  0  0  0  0
  2  3  2  0  0  0  0
  3  4  1  0  0  0  0
  3  5  1  0  0  0  0
  5  6  1  0  0  0  0
  5  7  2  0  0  0  0
  7  8  1  0  0  0  0
  8  9  1  0  0  0  0
  8 10  2  0  0  0  0
  2 10  1  0  0  0  0
 10 11  1  0  0  0  0
 11 12  1  0  0  0  0
 12 13  2  0  0  0  0
 12 14  1  0  0  0  0
 14 15  1  0  0  0  0
 15 16  2  0  0  0  0
 16 17  1  0  0  0  0
 16 18  1  0  0  0  0
 18 19  1  0  0  0  0
 18 20  2  0  0  0  0
 20 21  1  0  0  0  0
 20 22  1  0  0  0  0
 22 23  1  0  0  0  0
 23 24  1  0  0  0  0
 24 25  1  0  0  0  0
 25 26  1  0  0  0  0
 25 27  1  0  0  0  0
 25 28  1  0  0  0  0
 24 29  1  0  0  0  0
 29 30  1  0  0  0  0
 29 31  1  0  0  0  0
 29 32  1  0  0  0  0
 32 33  1  0  0  0  0
 32 34  1  0  0  0  0
 32 35  1  0  0  0  0
 35 36  1  0  0  0  0
 35 37  1  0  0  0  0
 35 38  1  0  0  0  0
 38 39  1  0  0  0  0
 38 40  1  0  0  0  0
 38 41  1  0  0  0  0
 24 41  1  0  0  0  0
 41 42  1  0  0  0  0
 41 43  1  0  0  0  0
 23 44  1  0  0  0  0
 22 45  2  0  0  0  0
 15 45  1  0  0  0  0
 45 46  1  0  0  0  0
 14 47  1  0  0  0  0
 14 48  1  0  0  0  0
 11 49  1  0  0  0  0
  1 50  1  0  0  0  0
  1 51  1  0  0  0  0
  1 52  1  0  0  0  0
M  END
> <Potency>
14.7270755104771

> <pIC50>
4.831883486406552

> <Outcome>
Inactive

> <is_active>
0

$$$$

  Mrv1921 08232120312D          

 46 47  0  0  0  0            999 V2000
   -1.4289   -1.6500    0.0000 C   0  0  0  0  0  0  0  0  0  0  0  0
   -1.4289   -2.4750    0.0000 C   0  0  0  0  0  0  0  0  0  0  0  0
   -0.7145   -2.8875    0.0000 C   0  0  0  0  0  0  0  0  0  0  0  0
    0.0000   -2.4750    0.0000 H   0  0  0  0  0  0  0  0  0  0  0  0
   -0.7145   -3.7125    0.0000 C   0  0  0  0  0  0  0  0  0  0  0  0
    0.0000   -4.1250    0.0000 H   0  0  0  0  0  0  0  0  0  0  0  0
   -1.4289   -4.1250    0.0000 N   0  0  0  0  0  0  0  0  0  0  0  0
   -2.1434   -3.7125    0.0000 C   0  0  0  0  0  0  0  0  0  0  0  0
   -2.8579   -4.1250    0.0000 H   0  0  0  0  0  0  0  0  0  0  0  0
   -2.1434   -2.8875    0.0000 C   0  0  0  0  0  0  0  0  0  0  0  0
   -2.8579   -2.4750    0.0000 N   0  0  0  0  0  0  0  0  0  0  0  0
   -3.5724   -2.8875    0.0000 C   0  0  0  0  0  0  0  0  0  0  0  0
   -3.5724   -3.7125    0.0000 O   0  0  0  0  0  0  0  0  0  0  0  0
   -4.2868   -2.4750    0.0000 C   0  0  0  0  0  0  0  0  0  0  0  0
   -5.0013   -2.8875    0.0000 C   0  0  0  0  0  0  0  0  0  0  0  0
   -5.0013   -3.7125    0.0000 C   0  0  0  0  0  0  0  0  0  0  0  0
   -4.2868   -4.1250    0.0000 H   0  0  0  0  0  0  0  0  0  0  0  0
   -5.7158   -4.1250    0.0000 C   0  0  0  0  0  0  0  0  0  0  0  0
   -5.7158   -4.9500    0.0000 Cl  0  0  0  0  0  0  0  0  0  0  0  0
   -6.4302   -3.7125    0.0000 C   0  0  0  0  0  0  0  0  0  0  0  0
   -7.1447   -4.1250    0.0000 H   0  0  0  0  0  0  0  0  0  0  0  0
   -6.4302   -2.8875    0.0000 C   0  0  0  0  0  0  0  0  0  0  0  0
   -7.1447   -2.4750    0.0000 N   0  0  0  0  0  0  0  0  0  0  0  0
   -7.1447   -1.6500    0.0000 C   0  0  0  0  0  0  0  0  0  0  0  0
   -7.8592   -1.2375    0.0000 C   0  0  0  0  0  0  0  0  0  0  0  0
   -7.4467   -0.5230    0.0000 C   0  0  0  0  0  0  0  0  0  0  0  0
   -6.7916   -0.0216    0.0000 H   0  0  0  0  0  0  0  0  0  0  0  0
   -7.6596    0.2740    0.0000 H   0  0  0  0  0  0  0  0  0  0  0  0
   -8.2646   -0.4150    0.0000 H   0  0  0  0  0  0  0  0  0  0  0  0
   -8.2717   -1.9520    0.0000 C   0  0  0  0  0  0  0  0  0  0  0  0
   -8.9862   -1.5395    0.0000 H   0  0  0  0  0  0  0  0  0  0  0  0
   -8.6842   -2.6664    0.0000 H   0  0  0  0  0  0  0  0  0  0  0  0
   -7.5572   -2.3645    0.0000 H   0  0  0  0  0  0  0  0  0  0  0  0
   -8.5737   -0.8250    0.0000 C   0  0  0  0  0  0  0  0  0  0  0  0
   -9.2881   -0.4125    0.0000 N   0  0  0  0  0  0  0  0  0  0  0  0
   -6.3211   -1.6020    0.0000 H   0  0  0  0  0  0  0  0  0  0  0  0
   -6.6914   -0.9607    0.0000 H   0  0  0  0  0  0  0  0  0  0  0  0
   -7.8592   -2.8875    0.0000 H   0  0  0  0  0  0  0  0  0  0  0  0
   -5.7158   -2.4750    0.0000 C   0  0  0  0  0  0  0  0  0  0  0  0
   -5.7158   -1.6500    0.0000 H   0  0  0  0  0  0  0  0  0  0  0  0
   -3.9166   -1.7378    0.0000 H   0  0  0  0  0  0  0  0  0  0  0  0
   -4.6571   -1.7378    0.0000 H   0  0  0  0  0  0  0  0  0  0  0  0
   -2.8579   -1.6500    0.0000 H   0  0  0  0  0  0  0  0  0  0  0  0
   -0.6039   -1.6500    0.0000 H   0  0  0  0  0  0  0  0  0  0  0  0
   -1.4289   -0.8250    0.0000 H   0  0  0  0  0  0  0  0  0  0  0  0
   -2.2539   -1.6500    0.0000 H   0  0  0  0  0  0  0  0  0  0  0  0
  1  2  1  0  0  0  0
  2  3  2  0  0  0  0
  3  4  1  0  0  0  0
  3  5  1  0  0  0  0
  5  6  1  0  0  0  0
  5  7  2  0  0  0  0
  7  8  1  0  0  0  0
  8  9  1  0  0  0  0
  8 10  2  0  0  0  0
  2 10  1  0  0  0  0
 10 11  1  0  0  0  0
 11 12  1  0  0  0  0
 12 13  2  0  0  0  0
 12 14  1  0  0  0  0
 14 15  1  0  0  0  0
 15 16  2  0  0  0  0
 16 17  1  0  0  0  0
 16 18  1  0  0  0  0
 18 19  1  0  0  0  0
 18 20  2  0  0  0  0
 20 21  1  0  0  0  0
 20 22  1  0  0  0  0
 22 23  1  0  0  0  0
 23 24  1  0  0  0  0
 24 25  1  0  0  0  0
 25 26  1  0  0  0  0
 26 27  1  0  0  0  0
 26 28  1  0  0  0  0
 26 29  1  0  0  0  0
 25 30  1  0  0  0  0
 30 31  1  0  0  0  0
 30 32  1  0  0  0  0
 30 33  1  0  0  0  0
 25 34  1  0  0  0  0
 34 35  3  0  0  0  0
 24 36  1  0  0  0  0
 24 37  1  0  0  0  0
 23 38  1  0  0  0  0
 22 39  2  0  0  0  0
 15 39  1  0  0  0  0
 39 40  1  0  0  0  0
 14 41  1  0  0  0  0
 14 42  1  0  0  0  0
 11 43  1  0  0  0  0
  1 44  1  0  0  0  0
  1 45  1  0  0  0  0
  1 46  1  0  0  0  0
M  END
> <Potency>
36.5317412118329

> <pIC50>
4.437329627523391

> <Outcome>
Inactive

> <is_active>
0

$$$$

  Mrv1921 08232120312D          

 35 37  0  0  0  0            999 V2000
    5.0013    1.2375    0.0000 O   0  0  0  0  0  0  0  0  0  0  0  0
    5.0013    0.4125    0.0000 C   0  0  0  0  0  0  0  0  0  0  0  0
    4.2868    0.0000    0.0000 C   0  0  0  0  0  0  0  0  0  0  0  0
    3.5724    0.4125    0.0000 O   0  0  0  0  0  0  0  0  0  0  0  0
    2.8579    0.0000    0.0000 C   0  0  0  0  0  0  0  0  0  0  0  0
    2.8579   -0.8250    0.0000 C   0  0  0  0  0  0  0  0  0  0  0  0
    3.5724   -1.2375    0.0000 H   0  0  0  0  0  0  0  0  0  0  0  0
    2.1434   -1.2375    0.0000 C   0  0  0  0  0  0  0  0  0  0  0  0
    2.1434   -2.0625    0.0000 H   0  0  0  0  0  0  0  0  0  0  0  0
    1.4289   -0.8250    0.0000 C   0  0  0  0  0  0  0  0  0  0  0  0
    0.7145   -1.2375    0.0000 H   0  0  0  0  0  0  0  0  0  0  0  0
    1.4289    0.0000    0.0000 C   0  0  0  0  0  0  0  0  0  0  0  0
    0.7145    0.4125    0.0000 Cl  0  0  0  0  0  0  0  0  0  0  0  0
    2.1434    0.4125    0.0000 C   0  0  0  0  0  0  0  0  0  0  0  0
    2.1434    1.2375    0.0000 H   0  0  0  0  0  0  0  0  0  0  0  0
    3.9166   -0.7372    0.0000 H   0  0  0  0  0  0  0  0  0  0  0  0
    4.6571   -0.7372    0.0000 H   0  0  0  0  0  0  0  0  0  0  0  0
    5.7158    0.0000    0.0000 N   0  0  0  0  0  0  0  0  0  0  0  0
    6.4302    0.4125    0.0000 C   0  0  0  0  0  0  0  0  0  0  0  0
    6.4302    1.2375    0.0000 C   0  0  0  0  0  0  0  0  0  0  0  0
    5.7158    1.6500    0.0000 H   0  0  0  0  0  0  0  0  0  0  0  0
    7.1447    1.6500    0.0000 N   0  0  0  0  0  0  0  0  0  0  0  0
    7.8592    1.2375    0.0000 C   0  0  0  0  0  0  0  0  0  0  0  0
    8.5737    1.6500    0.0000 H   0  0  0  0  0  0  0  0  0  0  0  0
    7.8592    0.4125    0.0000 C   0  0  0  0  0  0  0  0  0  0  0  0
    8.5737    0.0000    0.0000 C   0  0  0  0  0  0  0  0  0  0  0  0
    8.5737   -0.8250    0.0000 C   0  0  0  0  0  0  0  0  0  0  0  0
    7.8592   -1.2375    0.0000 C   0  0  0  0  0  0  0  0  0  0  0  0
    7.1447   -0.8250    0.0000 C   0  0  0  0  0  0  0  0  0  0  0  0
    6.4302   -1.2375    0.0000 H   0  0  0  0  0  0  0  0  0  0  0  0
    7.1447    0.0000    0.0000 C   0  0  0  0  0  0  0  0  0  0  0  0
    7.8592   -2.0625    0.0000 H   0  0  0  0  0  0  0  0  0  0  0  0
    9.2881   -1.2375    0.0000 H   0  0  0  0  0  0  0  0  0  0  0  0
    9.2881    0.4125    0.0000 H   0  0  0  0  0  0  0  0  0  0  0  0
    5.7158   -0.8250    0.0000 H   0  0  0  0  0  0  0  0  0  0  0  0
  1  2  2  0  0  0  0
  2  3  1  0  0  0  0
  3  4  1  0  0  0  0
  4  5  1  0  0  0  0
  5  6  2  0  0  0  0
  6  7  1  0  0  0  0
  6  8  1  0  0  0  0
  8  9  1  0  0  0  0
  8 10  2  0  0  0  0
 10 11  1  0  0  0  0
 10 12  1  0  0  0  0
 12 13  1  0  0  0  0
 12 14  2  0  0  0  0
  5 14  1  0  0  0  0
 14 15  1  0  0  0  0
  3 16  1  0  0  0  0
  3 17  1  0  0  0  0
  2 18  1  0  0  0  0
 18 19  1  0  0  0  0
 19 20  2  0  0  0  0
 20 21  1  0  0  0  0
 20 22  1  0  0  0  0
 22 23  2  0  0  0  0
 23 24  1  0  0  0  0
 23 25  1  0  0  0  0
 25 26  2  0  0  0  0
 26 27  1  0  0  0  0
 27 28  2  0  0  0  0
 28 29  1  0  0  0  0
 29 30  1  0  0  0  0
 29 31  2  0  0  0  0
 19 31  1  0  0  0  0
 25 31  1  0  0  0  0
 28 32  1  0  0  0  0
 27 33  1  0  0  0  0
 26 34  1  0  0  0  0
 18 35  1  0  0  0  0
M  END
> <Potency>
11.1724691059171

> <pIC50>
4.95185083757593

> <Outcome>
Inactive

> <is_active>
0

$$$$

  Mrv1921 08232120312D          

 37 39  0  0  0  0            999 V2000
    5.0013    1.2375    0.0000 O   0  0  0  0  0  0  0  0  0  0  0  0
    5.0013    0.4125    0.0000 C   0  0  0  0  0  0  0  0  0  0  0  0
    4.2868    0.0000    0.0000 C   0  0  0  0  0  0  0  0  0  0  0  0
    3.5724    0.4125    0.0000 C   0  0  0  0  0  0  0  0  0  0  0  0
    2.8579    0.0000    0.0000 C   0  0  0  0  0  0  0  0  0  0  0  0
    2.8579   -0.8250    0.0000 C   0  0  0  0  0  0  0  0  0  0  0  0
    3.5724   -1.2375    0.0000 H   0  0  0  0  0  0  0  0  0  0  0  0
    2.1434   -1.2375    0.0000 C   0  0  0  0  0  0  0  0  0  0  0  0
    2.1434   -2.0625    0.0000 H   0  0  0  0  0  0  0  0  0  0  0  0
    1.4289   -0.8250    0.0000 C   0  0  0  0  0  0  0  0  0  0  0  0
    0.7145   -1.2375    0.0000 H   0  0  0  0  0  0  0  0  0  0  0  0
    1.4289    0.0000    0.0000 C   0  0  0  0  0  0  0  0  0  0  0  0
    0.7145    0.4125    0.0000 Cl  0  0  0  0  0  0  0  0  0  0  0  0
    2.1434    0.4125    0.0000 C   0  0  0  0  0  0  0  0  0  0  0  0
    2.1434    1.2375    0.0000 H   0  0  0  0  0  0  0  0  0  0  0  0
    3.9426    1.1497    0.0000 H   0  0  0  0  0  0  0  0  0  0  0  0
    3.2021    1.1497    0.0000 H   0  0  0  0  0  0  0  0  0  0  0  0
    3.9166   -0.7372    0.0000 H   0  0  0  0  0  0  0  0  0  0  0  0
    4.6571   -0.7372    0.0000 H   0  0  0  0  0  0  0  0  0  0  0  0
    5.7158    0.0000    0.0000 N   0  0  0  0  0  0  0  0  0  0  0  0
    6.4302    0.4125    0.0000 C   0  0  0  0  0  0  0  0  0  0  0  0
    6.4302    1.2375    0.0000 C   0  0  0  0  0  0  0  0  0  0  0  0
    5.7158    1.6500    0.0000 H   0  0  0  0  0  0  0  0  0  0  0  0
    7.1447    1.6500    0.0000 N   0  0  0  0  0  0  0  0  0  0  0  0
    7.8592    1.2375    0.0000 C   0  0  0  0  0  0  0  0  0  0  0  0
    8.5737    1.6500    0.0000 H   0  0  0  0  0  0  0  0  0  0  0  0
    7.8592    0.4125    0.0000 C   0  0  0  0  0  0  0  0  0  0  0  0
    8.5737    0.0000    0.0000 C   0  0  0  0  0  0  0  0  0  0  0  0
    8.5737   -0.8250    0.0000 C   0  0  0  0  0  0  0  0  0  0  0  0
    7.8592   -1.2375    0.0000 C   0  0  0  0  0  0  0  0  0  0  0  0
    7.1447   -0.8250    0.0000 C   0  0  0  0  0  0  0  0  0  0  0  0
    6.4302   -1.2375    0.0000 H   0  0  0  0  0  0  0  0  0  0  0  0
    7.1447    0.0000    0.0000 C   0  0  0  0  0  0  0  0  0  0  0  0
    7.8592   -2.0625    0.0000 H   0  0  0  0  0  0  0  0  0  0  0  0
    9.2881   -1.2375    0.0000 H   0  0  0  0  0  0  0  0  0  0  0  0
    9.2881    0.4125    0.0000 H   0  0  0  0  0  0  0  0  0  0  0  0
    5.7158   -0.8250    0.0000 H   0  0  0  0  0  0  0  0  0  0  0  0
  1  2  2  0  0  0  0
  2  3  1  0  0  0  0
  3  4  1  0  0  0  0
  4  5  1  0  0  0  0
  5  6  2  0  0  0  0
  6  7  1  0  0  0  0
  6  8  1  0  0  0  0
  8  9  1  0  0  0  0
  8 10  2  0  0  0  0
 10 11  1  0  0  0  0
 10 12  1  0  0  0  0
 12 13  1  0  0  0  0
 12 14  2  0  0  0  0
  5 14  1  0  0  0  0
 14 15  1  0  0  0  0
  4 16  1  0  0  0  0
  4 17  1  0  0  0  0
  3 18  1  0  0  0  0
  3 19  1  0  0  0  0
  2 20  1  0  0  0  0
 20 21  1  0  0  0  0
 21 22  2  0  0  0  0
 22 23  1  0  0  0  0
 22 24  1  0  0  0  0
 24 25  2  0  0  0  0
 25 26  1  0  0  0  0
 25 27  1  0  0  0  0
 27 28  2  0  0  0  0
 28 29  1  0  0  0  0
 29 30  2  0  0  0  0
 30 31  1  0  0  0  0
 31 32  1  0  0  0  0
 31 33  2  0  0  0  0
 21 33  1  0  0  0  0
 27 33  1  0  0  0  0
 30 34  1  0  0  0  0
 29 35  1  0  0  0  0
 28 36  1  0  0  0  0
 20 37  1  0  0  0  0
M  END
> <Potency>
20.7934211073791

> <pIC50>
4.68207405103291

> <Outcome>
Inactive

> <is_active>
0

$$$$

  Mrv1921 08232120312D          

 26 27  0  0  0  0            999 V2000
    2.7512   -0.8866    0.0000 N   0  0  0  0  0  0  0  0  0  0  0  0
    2.7512   -1.7116    0.0000 C   0  0  0  0  0  0  0  0  0  0  0  0
    2.7512   -2.5366    0.0000 C   0  0  0  0  0  0  0  0  0  0  0  0
    3.4186   -3.0215    0.0000 N   0  0  0  0  0  0  0  0  0  0  0  0
    3.1637   -3.8062    0.0000 C   0  0  0  0  0  0  0  0  0  0  0  0
    3.6486   -4.4736    0.0000 H   0  0  0  0  0  0  0  0  0  0  0  0
    2.3387   -3.8062    0.0000 N   0  0  0  0  0  0  0  0  0  0  0  0
    1.8538   -4.4736    0.0000 C   0  0  0  0  0  0  0  0  0  0  0  0
    1.0333   -4.3874    0.0000 C   0  0  0  0  0  0  0  0  0  0  0  0
    0.6977   -3.6337    0.0000 O   0  0  0  0  0  0  0  0  0  0  0  0
    0.5484   -5.0548    0.0000 N   0  0  0  0  0  0  0  0  0  0  0  0
   -0.2721   -4.9686    0.0000 C   0  0  0  0  0  0  0  0  0  0  0  0
   -0.7571   -5.6360    0.0000 C   0  0  0  0  0  0  0  0  0  0  0  0
   -0.4215   -6.3897    0.0000 H   0  0  0  0  0  0  0  0  0  0  0  0
   -1.5775   -5.5498    0.0000 C   0  0  0  0  0  0  0  0  0  0  0  0
   -2.0625   -6.2172    0.0000 H   0  0  0  0  0  0  0  0  0  0  0  0
   -1.9131   -4.7961    0.0000 C   0  0  0  0  0  0  0  0  0  0  0  0
   -2.7336   -4.7098    0.0000 Br  0  0  0  0  0  0  0  0  0  0  0  0
   -1.4282   -4.1286    0.0000 C   0  0  0  0  0  0  0  0  0  0  0  0
   -1.7637   -3.3750    0.0000 H   0  0  0  0  0  0  0  0  0  0  0  0
   -0.6077   -4.2149    0.0000 C   0  0  0  0  0  0  0  0  0  0  0  0
   -0.1228   -3.5474    0.0000 Cl  0  0  0  0  0  0  0  0  0  0  0  0
    0.8839   -5.8085    0.0000 H   0  0  0  0  0  0  0  0  0  0  0  0
    1.8154   -5.2977    0.0000 H   0  0  0  0  0  0  0  0  0  0  0  0
    2.4919   -4.9965    0.0000 H   0  0  0  0  0  0  0  0  0  0  0  0
    2.0837   -3.0215    0.0000 N   0  0  0  0  0  0  0  0  0  0  0  0
  1  2  3  0  0  0  0
  2  3  1  0  0  0  0
  3  4  1  0  0  0  0
  4  5  2  0  0  0  0
  5  6  1  0  0  0  0
  5  7  1  0  0  0  0
  7  8  1  0  0  0  0
  8  9  1  0  0  0  0
  9 10  2  0  0  0  0
  9 11  1  0  0  0  0
 11 12  1  0  0  0  0
 12 13  2  0  0  0  0
 13 14  1  0  0  0  0
 13 15  1  0  0  0  0
 15 16  1  0  0  0  0
 15 17  2  0  0  0  0
 17 18  1  0  0  0  0
 17 19  1  0  0  0  0
 19 20  1  0  0  0  0
 19 21  2  0  0  0  0
 12 21  1  0  0  0  0
 21 22  1  0  0  0  0
 11 23  1  0  0  0  0
  8 24  1  0  0  0  0
  8 25  1  0  0  0  0
  7 26  1  0  0  0  0
  3 26  2  0  0  0  0
M  END
> <Potency>
15.7308966623793

> <pIC50>
4.803246521850655

> <Outcome>
Inactive

> <is_active>
0

$$$$

  Mrv1921 08232120312D          

 37 38  0  0  0  0            999 V2000
    3.5724   -1.2375    0.0000 C   0  0  0  0  0  0  0  0  0  0  0  0
    2.8579   -1.6500    0.0000 C   0  0  0  0  0  0  0  0  0  0  0  0
    2.1434   -1.2375    0.0000 C   0  0  0  0  0  0  0  0  0  0  0  0
    1.9299   -0.4406    0.0000 H   0  0  0  0  0  0  0  0  0  0  0  0
    1.3184   -1.2375    0.0000 H   0  0  0  0  0  0  0  0  0  0  0  0
    1.9299   -2.0344    0.0000 H   0  0  0  0  0  0  0  0  0  0  0  0
    2.8579   -2.4750    0.0000 C   0  0  0  0  0  0  0  0  0  0  0  0
    2.1434   -2.8875    0.0000 C   0  0  0  0  0  0  0  0  0  0  0  0
    1.3246   -2.9884    0.0000 H   0  0  0  0  0  0  0  0  0  0  0  0
    2.1434   -3.7125    0.0000 C   0  0  0  0  0  0  0  0  0  0  0  0
    1.4289   -4.1250    0.0000 H   0  0  0  0  0  0  0  0  0  0  0  0
    2.8579   -4.1250    0.0000 N   0  0  0  0  0  0  0  0  0  0  0  0
    3.5724   -3.7125    0.0000 C   0  0  0  0  0  0  0  0  0  0  0  0
    4.2868   -4.1250    0.0000 H   0  0  0  0  0  0  0  0  0  0  0  0
    3.5724   -2.8875    0.0000 C   0  0  0  0  0  0  0  0  0  0  0  0
    4.2868   -2.4750    0.0000 N   0  0  0  0  0  0  0  0  0  0  0  0
    5.0013   -2.8875    0.0000 C   0  0  0  0  0  0  0  0  0  0  0  0
    5.0013   -3.7125    0.0000 O   0  0  0  0  0  0  0  0  0  0  0  0
    5.7158   -2.4750    0.0000 C   0  0  0  0  0  0  0  0  0  0  0  0
    6.4302   -2.8875    0.0000 C   0  0  0  0  0  0  0  0  0  0  0  0
    7.1447   -2.4750    0.0000 C   0  0  0  0  0  0  0  0  0  0  0  0
    7.1447   -1.6500    0.0000 H   0  0  0  0  0  0  0  0  0  0  0  0
    7.8592   -2.8875    0.0000 C   0  0  0  0  0  0  0  0  0  0  0  0
    8.5737   -2.4750    0.0000 H   0  0  0  0  0  0  0  0  0  0  0  0
    7.8592   -3.7125    0.0000 C   0  0  0  0  0  0  0  0  0  0  0  0
    8.5737   -4.1250    0.0000 H   0  0  0  0  0  0  0  0  0  0  0  0
    7.1447   -4.1250    0.0000 C   0  0  0  0  0  0  0  0  0  0  0  0
    7.1447   -4.9500    0.0000 Cl  0  0  0  0  0  0  0  0  0  0  0  0
    6.4302   -3.7125    0.0000 C   0  0  0  0  0  0  0  0  0  0  0  0
    5.7158   -4.1250    0.0000 H   0  0  0  0  0  0  0  0  0  0  0  0
    6.0860   -1.7378    0.0000 H   0  0  0  0  0  0  0  0  0  0  0  0
    5.3455   -1.7378    0.0000 H   0  0  0  0  0  0  0  0  0  0  0  0
    4.8702   -1.8916    0.0000 H   0  0  0  0  0  0  0  0  0  0  0  0
    2.8579   -0.8250    0.0000 H   0  0  0  0  0  0  0  0  0  0  0  0
    3.9849   -1.9520    0.0000 H   0  0  0  0  0  0  0  0  0  0  0  0
    4.2868   -0.8250    0.0000 H   0  0  0  0  0  0  0  0  0  0  0  0
    3.1599   -0.5230    0.0000 H   0  0  0  0  0  0  0  0  0  0  0  0
  1  2  1  0  0  0  0
  2  3  1  0  0  0  0
  3  4  1  0  0  0  0
  3  5  1  0  0  0  0
  3  6  1  0  0  0  0
  2  7  1  0  0  0  0
  7  8  2  0  0  0  0
  8  9  1  0  0  0  0
  8 10  1  0  0  0  0
 10 11  1  0  0  0  0
 10 12  2  0  0  0  0
 12 13  1  0  0  0  0
 13 14  1  0  0  0  0
 13 15  2  0  0  0  0
  7 15  1  0  0  0  0
 15 16  1  0  0  0  0
 16 17  1  0  0  0  0
 17 18  2  0  0  0  0
 17 19  1  0  0  0  0
 19 20  1  0  0  0  0
 20 21  2  0  0  0  0
 21 22  1  0  0  0  0
 21 23  1  0  0  0  0
 23 24  1  0  0  0  0
 23 25  2  0  0  0  0
 25 26  1  0  0  0  0
 25 27  1  0  0  0  0
 27 28  1  0  0  0  0
 27 29  2  0  0  0  0
 20 29  1  0  0  0  0
 29 30  1  0  0  0  0
 19 31  1  0  0  0  0
 19 32  1  0  0  0  0
 16 33  1  0  0  0  0
  2 34  1  0  0  0  0
  1 35  1  0  0  0  0
  1 36  1  0  0  0  0
  1 37  1  0  0  0  0
M  END
> <Potency>
19.5089876933868

> <pIC50>
4.7097652652329645

> <Outcome>
Inactive

> <is_active>
0

$$$$

  Mrv1921 08232120312D          

 37 39  0  0  0  0            999 V2000
    2.1434   -2.8875    0.0000 C   0  0  0  0  0  0  0  0  0  0  0  0
    1.4289   -2.4750    0.0000 N   0  0  0  0  0  0  0  0  0  0  0  0
    0.7145   -2.8875    0.0000 C   0  0  0  0  0  0  0  0  0  0  0  0
    0.0000   -2.4750    0.0000 O   0  0  0  0  0  0  0  0  0  0  0  0
    0.7145   -3.7125    0.0000 C   0  0  0  0  0  0  0  0  0  0  0  0
    0.0000   -4.1250    0.0000 C   0  0  0  0  0  0  0  0  0  0  0  0
    0.0000   -4.9500    0.0000 C   0  0  0  0  0  0  0  0  0  0  0  0
    0.7145   -5.3625    0.0000 H   0  0  0  0  0  0  0  0  0  0  0  0
   -0.7145   -5.3625    0.0000 C   0  0  0  0  0  0  0  0  0  0  0  0
   -0.7145   -6.1875    0.0000 H   0  0  0  0  0  0  0  0  0  0  0  0
   -1.4289   -4.9500    0.0000 C   0  0  0  0  0  0  0  0  0  0  0  0
   -2.1434   -5.3625    0.0000 H   0  0  0  0  0  0  0  0  0  0  0  0
   -1.4289   -4.1250    0.0000 C   0  0  0  0  0  0  0  0  0  0  0  0
   -2.1434   -3.7125    0.0000 Cl  0  0  0  0  0  0  0  0  0  0  0  0
   -0.7145   -3.7125    0.0000 C   0  0  0  0  0  0  0  0  0  0  0  0
   -0.7145   -2.8875    0.0000 H   0  0  0  0  0  0  0  0  0  0  0  0
    1.1678   -4.4018    0.0000 H   0  0  0  0  0  0  0  0  0  0  0  0
    1.5381   -3.7605    0.0000 H   0  0  0  0  0  0  0  0  0  0  0  0
    1.4289   -1.6500    0.0000 C   0  0  0  0  0  0  0  0  0  0  0  0
    0.7145   -1.2375    0.0000 C   0  0  0  0  0  0  0  0  0  0  0  0
    0.0000   -1.6500    0.0000 H   0  0  0  0  0  0  0  0  0  0  0  0
    0.7145   -0.4125    0.0000 N   0  0  0  0  0  0  0  0  0  0  0  0
    1.4289    0.0000    0.0000 C   0  0  0  0  0  0  0  0  0  0  0  0
    1.4289    0.8250    0.0000 H   0  0  0  0  0  0  0  0  0  0  0  0
    2.1434   -0.4125    0.0000 C   0  0  0  0  0  0  0  0  0  0  0  0
    2.8579    0.0000    0.0000 C   0  0  0  0  0  0  0  0  0  0  0  0
    3.5724   -0.4125    0.0000 C   0  0  0  0  0  0  0  0  0  0  0  0
    3.5724   -1.2375    0.0000 C   0  0  0  0  0  0  0  0  0  0  0  0
    2.8579   -1.6500    0.0000 C   0  0  0  0  0  0  0  0  0  0  0  0
    3.4412   -2.2334    0.0000 H   0  0  0  0  0  0  0  0  0  0  0  0
    2.1434   -1.2375    0.0000 C   0  0  0  0  0  0  0  0  0  0  0  0
    4.2868   -1.6500    0.0000 H   0  0  0  0  0  0  0  0  0  0  0  0
    4.2868   -0.0000    0.0000 H   0  0  0  0  0  0  0  0  0  0  0  0
    2.8579    0.8250    0.0000 H   0  0  0  0  0  0  0  0  0  0  0  0
    1.7309   -3.6020    0.0000 H   0  0  0  0  0  0  0  0  0  0  0  0
    2.8579   -3.3000    0.0000 H   0  0  0  0  0  0  0  0  0  0  0  0
    2.5559   -2.1730    0.0000 H   0  0  0  0  0  0  0  0  0  0  0  0
  1  2  1  0  0  0  0
  2  3  1  0  0  0  0
  3  4  2  0  0  0  0
  3  5  1  0  0  0  0
  5  6  1  0  0  0  0
  6  7  2  0  0  0  0
  7  8  1  0  0  0  0
  7  9  1  0  0  0  0
  9 10  1  0  0  0  0
  9 11  2  0  0  0  0
 11 12  1  0  0  0  0
 11 13  1  0  0  0  0
 13 14  1  0  0  0  0
 13 15  2  0  0  0  0
  6 15  1  0  0  0  0
 15 16  1  0  0  0  0
  5 17  1  0  0  0  0
  5 18  1  0  0  0  0
  2 19  1  0  0  0  0
 19 20  2  0  0  0  0
 20 21  1  0  0  0  0
 20 22  1  0  0  0  0
 22 23  2  0  0  0  0
 23 24  1  0  0  0  0
 23 25  1  0  0  0  0
 25 26  2  0  0  0  0
 26 27  1  0  0  0  0
 27 28  2  0  0  0  0
 28 29  1  0  0  0  0
 29 30  1  0  0  0  0
 29 31  2  0  0  0  0
 19 31  1  0  0  0  0
 25 31  1  0  0  0  0
 28 32  1  0  0  0  0
 27 33  1  0  0  0  0
 26 34  1  0  0  0  0
  1 35  1  0  0  0  0
  1 36  1  0  0  0  0
  1 37  1  0  0  0  0
M  END
> <Potency>
34.3682484253434

> <pIC50>
4.46384260107756

> <Outcome>
Inactive

> <is_active>
0

$$$$

  Mrv1921 08232120312D          

 28 29  0  0  0  0            999 V2000
   -2.7512   -1.7116    0.0000 O   0  0  0  0  0  0  0  0  0  0  0  0
   -2.0367   -1.2991    0.0000 C   0  0  0  0  0  0  0  0  0  0  0  0
   -2.0367   -0.4741    0.0000 C   0  0  0  0  0  0  0  0  0  0  0  0
   -2.7512   -0.0616    0.0000 C   0  0  0  0  0  0  0  0  0  0  0  0
   -3.4656   -0.4741    0.0000 C   0  0  0  0  0  0  0  0  0  0  0  0
   -4.1801   -0.8866    0.0000 H   0  0  0  0  0  0  0  0  0  0  0  0
   -4.1801   -0.0616    0.0000 C   0  0  0  0  0  0  0  0  0  0  0  0
   -5.0051   -0.0616    0.0000 H   0  0  0  0  0  0  0  0  0  0  0  0
   -4.1801    0.7634    0.0000 C   0  0  0  0  0  0  0  0  0  0  0  0
   -4.8946    1.1759    0.0000 H   0  0  0  0  0  0  0  0  0  0  0  0
   -3.4656    1.1759    0.0000 C   0  0  0  0  0  0  0  0  0  0  0  0
   -3.4656    2.0009    0.0000 Cl  0  0  0  0  0  0  0  0  0  0  0  0
   -2.7512    0.7634    0.0000 C   0  0  0  0  0  0  0  0  0  0  0  0
   -2.0367    1.1759    0.0000 H   0  0  0  0  0  0  0  0  0  0  0  0
   -1.2131   -0.4261    0.0000 H   0  0  0  0  0  0  0  0  0  0  0  0
   -1.5834    0.2152    0.0000 H   0  0  0  0  0  0  0  0  0  0  0  0
   -1.3222   -1.7116    0.0000 C   0  0  0  0  0  0  0  0  0  0  0  0
   -1.3222   -2.5366    0.0000 N   0  0  0  0  0  0  0  0  0  0  0  0
   -0.6548   -3.0215    0.0000 C   0  0  0  0  0  0  0  0  0  0  0  0
    0.1298   -2.7666    0.0000 H   0  0  0  0  0  0  0  0  0  0  0  0
   -0.9097   -3.8062    0.0000 N   0  0  0  0  0  0  0  0  0  0  0  0
   -1.7347   -3.8062    0.0000 C   0  0  0  0  0  0  0  0  0  0  0  0
   -2.2197   -4.4736    0.0000 H   0  0  0  0  0  0  0  0  0  0  0  0
   -1.9897   -3.0215    0.0000 N   0  0  0  0  0  0  0  0  0  0  0  0
   -0.4986   -1.6636    0.0000 H   0  0  0  0  0  0  0  0  0  0  0  0
   -0.8689   -1.0223    0.0000 H   0  0  0  0  0  0  0  0  0  0  0  0
   -2.7512   -0.8866    0.0000 H   0  0  0  0  0  0  0  0  0  0  0  0
   -3.4656   -1.2991    0.0000 H   0  0  0  0  0  0  0  0  0  0  0  0
  1  2  1  0  0  0  0
  2  3  1  0  0  0  0
  3  4  1  0  0  0  0
  4  5  2  0  0  0  0
  5  6  1  0  0  0  0
  5  7  1  0  0  0  0
  7  8  1  0  0  0  0
  7  9  2  0  0  0  0
  9 10  1  0  0  0  0
  9 11  1  0  0  0  0
 11 12  1  0  0  0  0
 11 13  2  0  0  0  0
  4 13  1  0  0  0  0
 13 14  1  0  0  0  0
  3 15  1  0  0  0  0
  3 16  1  0  0  0  0
  2 17  1  0  0  0  0
 17 18  1  0  0  0  0
 18 19  1  0  0  0  0
 19 20  1  0  0  0  0
 19 21  2  0  0  0  0
 21 22  1  0  0  0  0
 22 23  1  0  0  0  0
 22 24  2  0  0  0  0
 18 24  1  0  0  0  0
 17 25  1  0  0  0  0
 17 26  1  0  0  0  0
  2 27  1  0  0  0  0
  1 28  1  0  0  0  0
M  END
> <Potency>
65.3053608779243

> <pIC50>
4.1850511662878995

> <Outcome>
Inactive

> <is_active>
0

$$$$

  Mrv1921 08232120312D          

 46 49  0  0  0  0            999 V2000
    0.0000   -2.4750    0.0000 O   0  0  0  0  0  0  0  0  0  0  0  0
    0.7145   -2.8875    0.0000 C   0  0  0  0  0  0  0  0  0  0  0  0
    0.7145   -3.7125    0.0000 C   0  0  0  0  0  0  0  0  0  0  0  0
    0.0000   -4.1250    0.0000 C   0  0  0  0  0  0  0  0  0  0  0  0
    0.0000   -4.9500    0.0000 C   0  0  0  0  0  0  0  0  0  0  0  0
    0.7145   -5.3625    0.0000 H   0  0  0  0  0  0  0  0  0  0  0  0
   -0.7145   -5.3625    0.0000 C   0  0  0  0  0  0  0  0  0  0  0  0
   -0.7145   -6.1875    0.0000 Cl  0  0  0  0  0  0  0  0  0  0  0  0
   -1.4289   -4.9500    0.0000 C   0  0  0  0  0  0  0  0  0  0  0  0
   -2.1434   -5.3625    0.0000 H   0  0  0  0  0  0  0  0  0  0  0  0
   -1.4289   -4.1250    0.0000 C   0  0  0  0  0  0  0  0  0  0  0  0
   -2.1434   -3.7125    0.0000 O   0  0  0  0  0  0  0  0  0  0  0  0
   -2.8579   -4.1250    0.0000 C   0  0  0  0  0  0  0  0  0  0  0  0
   -2.9441   -4.9455    0.0000 C   0  0  0  0  0  0  0  0  0  0  0  0
   -3.0555   -5.7629    0.0000 H   0  0  0  0  0  0  0  0  0  0  0  0
   -2.2173   -4.5551    0.0000 H   0  0  0  0  0  0  0  0  0  0  0  0
   -3.7511   -5.1170    0.0000 C   0  0  0  0  0  0  0  0  0  0  0  0
   -4.5415   -5.3535    0.0000 H   0  0  0  0  0  0  0  0  0  0  0  0
   -4.1578   -5.8348    0.0000 H   0  0  0  0  0  0  0  0  0  0  0  0
   -4.1636   -4.4025    0.0000 C   0  0  0  0  0  0  0  0  0  0  0  0
   -4.9841   -4.3163    0.0000 O   0  0  0  0  0  0  0  0  0  0  0  0
   -3.6116   -3.7894    0.0000 N   0  0  0  0  0  0  0  0  0  0  0  0
   -4.1555   -3.1692    0.0000 H   0  0  0  0  0  0  0  0  0  0  0  0
   -2.9011   -3.3011    0.0000 H   0  0  0  0  0  0  0  0  0  0  0  0
   -0.7145   -3.7125    0.0000 C   0  0  0  0  0  0  0  0  0  0  0  0
   -0.7145   -2.8875    0.0000 H   0  0  0  0  0  0  0  0  0  0  0  0
    1.1678   -4.4018    0.0000 H   0  0  0  0  0  0  0  0  0  0  0  0
    1.5381   -3.7605    0.0000 H   0  0  0  0  0  0  0  0  0  0  0  0
    1.4289   -2.4750    0.0000 N   0  0  0  0  0  0  0  0  0  0  0  0
    1.4289   -1.6500    0.0000 C   0  0  0  0  0  0  0  0  0  0  0  0
    0.7145   -1.2375    0.0000 C   0  0  0  0  0  0  0  0  0  0  0  0
    0.0000   -1.6500    0.0000 H   0  0  0  0  0  0  0  0  0  0  0  0
    0.7145   -0.4125    0.0000 N   0  0  0  0  0  0  0  0  0  0  0  0
    1.4289    0.0000    0.0000 C   0  0  0  0  0  0  0  0  0  0  0  0
    1.4289    0.8250    0.0000 H   0  0  0  0  0  0  0  0  0  0  0  0
    2.1434   -0.4125    0.0000 C   0  0  0  0  0  0  0  0  0  0  0  0
    2.8579    0.0000    0.0000 C   0  0  0  0  0  0  0  0  0  0  0  0
    3.5724   -0.4125    0.0000 C   0  0  0  0  0  0  0  0  0  0  0  0
    3.5724   -1.2375    0.0000 C   0  0  0  0  0  0  0  0  0  0  0  0
    2.8579   -1.6500    0.0000 C   0  0  0  0  0  0  0  0  0  0  0  0
    2.8579   -2.4750    0.0000 H   0  0  0  0  0  0  0  0  0  0  0  0
    2.1434   -1.2375    0.0000 C   0  0  0  0  0  0  0  0  0  0  0  0
    4.2868   -1.6500    0.0000 H   0  0  0  0  0  0  0  0  0  0  0  0
    4.2868   -0.0000    0.0000 H   0  0  0  0  0  0  0  0  0  0  0  0
    2.8579    0.8250    0.0000 H   0  0  0  0  0  0  0  0  0  0  0  0
    2.1434   -2.8875    0.0000 H   0  0  0  0  0  0  0  0  0  0  0  0
  1  2  2  0  0  0  0
  2  3  1  0  0  0  0
  3  4  1  0  0  0  0
  4  5  2  0  0  0  0
  5  6  1  0  0  0  0
  5  7  1  0  0  0  0
  7  8  1  0  0  0  0
  7  9  2  0  0  0  0
  9 10  1  0  0  0  0
  9 11  1  0  0  0  0
 11 12  1  0  0  0  0
 12 13  1  0  0  0  0
 13 14  1  0  0  0  0
 14 15  1  0  0  0  0
 14 16  1  0  0  0  0
 14 17  1  0  0  0  0
 17 18  1  0  0  0  0
 17 19  1  0  0  0  0
 17 20  1  0  0  0  0
 20 21  2  0  0  0  0
 20 22  1  0  0  0  0
 13 22  1  0  0  0  0
 22 23  1  0  0  0  0
 13 24  1  0  0  0  0
 11 25  2  0  0  0  0
  4 25  1  0  0  0  0
 25 26  1  0  0  0  0
  3 27  1  0  0  0  0
  3 28  1  0  0  0  0
  2 29  1  0  0  0  0
 29 30  1  0  0  0  0
 30 31  2  0  0  0  0
 31 32  1  0  0  0  0
 31 33  1  0  0  0  0
 33 34  2  0  0  0  0
 34 35  1  0  0  0  0
 34 36  1  0  0  0  0
 36 37  2  0  0  0  0
 37 38  1  0  0  0  0
 38 39  2  0  0  0  0
 39 40  1  0  0  0  0
 40 41  1  0  0  0  0
 40 42  2  0  0  0  0
 30 42  1  0  0  0  0
 36 42  1  0  0  0  0
 39 43  1  0  0  0  0
 38 44  1  0  0  0  0
 37 45  1  0  0  0  0
 29 46  1  0  0  0  0
M  END
> <Potency>
85.8740204655224

> <pIC50>
4.066138203747178

> <Outcome>
Inactive

> <is_active>
0

$$$$

  Mrv1921 08232120312D          

 33 35  0  0  0  0            999 V2000
    0.0000   -2.4750    0.0000 O   0  0  0  0  0  0  0  0  0  0  0  0
    0.7145   -2.8875    0.0000 C   0  0  0  0  0  0  0  0  0  0  0  0
    0.7145   -3.7125    0.0000 C   0  0  0  0  0  0  0  0  0  0  0  0
    0.0000   -4.1250    0.0000 C   0  0  0  0  0  0  0  0  0  0  0  0
    0.0000   -4.9500    0.0000 C   0  0  0  0  0  0  0  0  0  0  0  0
    0.7145   -5.3625    0.0000 H   0  0  0  0  0  0  0  0  0  0  0  0
   -0.7145   -5.3625    0.0000 C   0  0  0  0  0  0  0  0  0  0  0  0
   -0.7145   -6.1875    0.0000 H   0  0  0  0  0  0  0  0  0  0  0  0
   -1.4289   -4.9500    0.0000 C   0  0  0  0  0  0  0  0  0  0  0  0
   -2.1434   -5.3625    0.0000 H   0  0  0  0  0  0  0  0  0  0  0  0
   -1.4289   -4.1250    0.0000 C   0  0  0  0  0  0  0  0  0  0  0  0
   -2.1434   -3.7125    0.0000 Cl  0  0  0  0  0  0  0  0  0  0  0  0
   -0.7145   -3.7125    0.0000 C   0  0  0  0  0  0  0  0  0  0  0  0
   -0.7145   -2.8875    0.0000 H   0  0  0  0  0  0  0  0  0  0  0  0
    1.1678   -4.4018    0.0000 H   0  0  0  0  0  0  0  0  0  0  0  0
    1.5381   -3.7605    0.0000 H   0  0  0  0  0  0  0  0  0  0  0  0
    1.4289   -2.4750    0.0000 N   0  0  0  0  0  0  0  0  0  0  0  0
    1.4289   -1.6500    0.0000 C   0  0  0  0  0  0  0  0  0  0  0  0
    0.7145   -1.2375    0.0000 C   0  0  0  0  0  0  0  0  0  0  0  0
    0.0000   -1.6500    0.0000 H   0  0  0  0  0  0  0  0  0  0  0  0
    0.7145   -0.4125    0.0000 N   0  0  0  0  0  0  0  0  0  0  0  0
    1.4289    0.0000    0.0000 C   0  0  0  0  0  0  0  0  0  0  0  0
    1.4289    0.8250    0.0000 H   0  0  0  0  0  0  0  0  0  0  0  0
    2.1434   -0.4125    0.0000 C   0  0  0  0  0  0  0  0  0  0  0  0
    2.8579    0.0000    0.0000 N   0  0  0  0  0  0  0  0  0  0  0  0
    3.5724   -0.4125    0.0000 C   0  0  0  0  0  0  0  0  0  0  0  0
    3.5724   -1.2375    0.0000 C   0  0  0  0  0  0  0  0  0  0  0  0
    2.8579   -1.6500    0.0000 C   0  0  0  0  0  0  0  0  0  0  0  0
    2.8579   -2.4750    0.0000 H   0  0  0  0  0  0  0  0  0  0  0  0
    2.1434   -1.2375    0.0000 C   0  0  0  0  0  0  0  0  0  0  0  0
    4.2868   -1.6500    0.0000 H   0  0  0  0  0  0  0  0  0  0  0  0
    4.2868   -0.0000    0.0000 H   0  0  0  0  0  0  0  0  0  0  0  0
    2.1434   -2.8875    0.0000 H   0  0  0  0  0  0  0  0  0  0  0  0
  1  2  2  0  0  0  0
  2  3  1  0  0  0  0
  3  4  1  0  0  0  0
  4  5  2  0  0  0  0
  5  6  1  0  0  0  0
  5  7  1  0  0  0  0
  7  8  1  0  0  0  0
  7  9  2  0  0  0  0
  9 10  1  0  0  0  0
  9 11  1  0  0  0  0
 11 12  1  0  0  0  0
 11 13  2  0  0  0  0
  4 13  1  0  0  0  0
 13 14  1  0  0  0  0
  3 15  1  0  0  0  0
  3 16  1  0  0  0  0
  2 17  1  0  0  0  0
 17 18  1  0  0  0  0
 18 19  1  0  0  0  0
 19 20  1  0  0  0  0
 19 21  2  0  0  0  0
 21 22  1  0  0  0  0
 22 23  1  0  0  0  0
 22 24  2  0  0  0  0
 24 25  1  0  0  0  0
 25 26  2  0  0  0  0
 26 27  1  0  0  0  0
 27 28  2  0  0  0  0
 28 29  1  0  0  0  0
 28 30  1  0  0  0  0
 18 30  2  0  0  0  0
 24 30  1  0  0  0  0
 27 31  1  0  0  0  0
 26 32  1  0  0  0  0
 17 33  1  0  0  0  0
M  END
> <Potency>
67.1123602063983

> <pIC50>
4.1731974876538205

> <Outcome>
Inactive

> <is_active>
0

$$$$

  Mrv1921 08232120312D          

 36 37  0  0  0  0            999 V2000
    2.8579   -1.6500    0.0000 C   0  0  0  0  0  0  0  0  0  0  0  0
    2.8579   -2.4750    0.0000 C   0  0  0  0  0  0  0  0  0  0  0  0
    3.5724   -2.8875    0.0000 C   0  0  0  0  0  0  0  0  0  0  0  0
    4.3476   -3.1697    0.0000 H   0  0  0  0  0  0  0  0  0  0  0  0
    4.3476   -2.6053    0.0000 H   0  0  0  0  0  0  0  0  0  0  0  0
    3.5724   -3.7125    0.0000 C   0  0  0  0  0  0  0  0  0  0  0  0
    3.7431   -4.5196    0.0000 H   0  0  0  0  0  0  0  0  0  0  0  0
    4.2317   -4.2084    0.0000 H   0  0  0  0  0  0  0  0  0  0  0  0
    2.8579   -4.1250    0.0000 N   0  0  0  0  0  0  0  0  0  0  0  0
    2.4832   -4.8600    0.0000 H   0  0  0  0  0  0  0  0  0  0  0  0
    2.1434   -3.7125    0.0000 C   0  0  0  0  0  0  0  0  0  0  0  0
    1.4289   -4.1250    0.0000 O   0  0  0  0  0  0  0  0  0  0  0  0
    2.1434   -2.8875    0.0000 C   0  0  0  0  0  0  0  0  0  0  0  0
    1.4289   -2.4750    0.0000 N   0  0  0  0  0  0  0  0  0  0  0  0
    1.4289   -1.6500    0.0000 C   0  0  0  0  0  0  0  0  0  0  0  0
    2.1434   -1.2375    0.0000 O   0  0  0  0  0  0  0  0  0  0  0  0
    0.7145   -1.2375    0.0000 C   0  0  0  0  0  0  0  0  0  0  0  0
    0.7145   -0.4125    0.0000 C   0  0  0  0  0  0  0  0  0  0  0  0
    0.0000    0.0000    0.0000 C   0  0  0  0  0  0  0  0  0  0  0  0
   -0.7145   -0.4125    0.0000 H   0  0  0  0  0  0  0  0  0  0  0  0
    0.0000    0.8250    0.0000 C   0  0  0  0  0  0  0  0  0  0  0  0
   -0.7145    1.2375    0.0000 H   0  0  0  0  0  0  0  0  0  0  0  0
    0.7145    1.2375    0.0000 C   0  0  0  0  0  0  0  0  0  0  0  0
    0.7145    2.0625    0.0000 H   0  0  0  0  0  0  0  0  0  0  0  0
    1.4289    0.8250    0.0000 C   0  0  0  0  0  0  0  0  0  0  0  0
    2.1434    1.2375    0.0000 Cl  0  0  0  0  0  0  0  0  0  0  0  0
    1.4289    0.0000    0.0000 C   0  0  0  0  0  0  0  0  0  0  0  0
    2.1434   -0.4125    0.0000 H   0  0  0  0  0  0  0  0  0  0  0  0
   -0.1091   -1.2855    0.0000 H   0  0  0  0  0  0  0  0  0  0  0  0
    0.2611   -1.9268    0.0000 H   0  0  0  0  0  0  0  0  0  0  0  0
    0.7145   -2.8875    0.0000 H   0  0  0  0  0  0  0  0  0  0  0  0
    2.8579   -3.3000    0.0000 H   0  0  0  0  0  0  0  0  0  0  0  0
    2.1434   -2.0625    0.0000 H   0  0  0  0  0  0  0  0  0  0  0  0
    3.5724   -2.0625    0.0000 H   0  0  0  0  0  0  0  0  0  0  0  0
    3.5724   -1.2375    0.0000 H   0  0  0  0  0  0  0  0  0  0  0  0
    2.8579   -0.8250    0.0000 H   0  0  0  0  0  0  0  0  0  0  0  0
  1  2  1  0  0  0  0
  2  3  1  0  0  0  0
  3  4  1  0  0  0  0
  3  5  1  0  0  0  0
  3  6  1  0  0  0  0
  6  7  1  0  0  0  0
  6  8  1  0  0  0  0
  6  9  1  0  0  0  0
  9 10  1  0  0  0  0
  9 11  1  0  0  0  0
 11 12  2  0  0  0  0
 11 13  1  0  0  0  0
  2 13  1  0  0  0  0
 13 14  1  0  0  0  0
 14 15  1  0  0  0  0
 15 16  2  0  0  0  0
 15 17  1  0  0  0  0
 17 18  1  0  0  0  0
 18 19  2  0  0  0  0
 19 20  1  0  0  0  0
 19 21  1  0  0  0  0
 21 22  1  0  0  0  0
 21 23  2  0  0  0  0
 23 24  1  0  0  0  0
 23 25  1  0  0  0  0
 25 26  1  0  0  0  0
 25 27  2  0  0  0  0
 18 27  1  0  0  0  0
 27 28  1  0  0  0  0
 17 29  1  0  0  0  0
 17 30  1  0  0  0  0
 14 31  1  0  0  0  0
 13 32  1  0  0  0  0
  2 33  1  0  0  0  0
  1 34  1  0  0  0  0
  1 35  1  0  0  0  0
  1 36  1  0  0  0  0
M  END
> <Potency>
43.7142909815475

> <pIC50>
4.359376561203271

> <Outcome>
Inactive

> <is_active>
0

$$$$

  Mrv1921 08232120312D          

 29 30  0  0  0  0            999 V2000
    2.7512   -1.7116    0.0000 C   0  0  0  0  0  0  0  0  0  0  0  0
    2.7512   -2.5366    0.0000 N   0  0  0  0  0  0  0  0  0  0  0  0
    3.4186   -3.0215    0.0000 C   0  0  0  0  0  0  0  0  0  0  0  0
    4.2032   -2.7666    0.0000 H   0  0  0  0  0  0  0  0  0  0  0  0
    3.1637   -3.8062    0.0000 N   0  0  0  0  0  0  0  0  0  0  0  0
    2.3387   -3.8062    0.0000 C   0  0  0  0  0  0  0  0  0  0  0  0
    1.8538   -4.4736    0.0000 H   0  0  0  0  0  0  0  0  0  0  0  0
    2.0837   -3.0215    0.0000 C   0  0  0  0  0  0  0  0  0  0  0  0
    1.2991   -2.7666    0.0000 N   0  0  0  0  0  0  0  0  0  0  0  0
    1.1276   -1.9596    0.0000 C   0  0  0  0  0  0  0  0  0  0  0  0
    1.7407   -1.4076    0.0000 O   0  0  0  0  0  0  0  0  0  0  0  0
    0.3430   -1.7047    0.0000 C   0  0  0  0  0  0  0  0  0  0  0  0
    0.1714   -0.8977    0.0000 C   0  0  0  0  0  0  0  0  0  0  0  0
   -0.6132   -0.6428    0.0000 C   0  0  0  0  0  0  0  0  0  0  0  0
   -1.2263   -1.1948    0.0000 H   0  0  0  0  0  0  0  0  0  0  0  0
   -0.7847    0.1642    0.0000 C   0  0  0  0  0  0  0  0  0  0  0  0
   -1.5693    0.4191    0.0000 H   0  0  0  0  0  0  0  0  0  0  0  0
   -0.1716    0.7162    0.0000 C   0  0  0  0  0  0  0  0  0  0  0  0
   -0.3431    1.5232    0.0000 H   0  0  0  0  0  0  0  0  0  0  0  0
    0.6130    0.4613    0.0000 C   0  0  0  0  0  0  0  0  0  0  0  0
    1.2261    1.0133    0.0000 Cl  0  0  0  0  0  0  0  0  0  0  0  0
    0.7845   -0.3457    0.0000 C   0  0  0  0  0  0  0  0  0  0  0  0
    1.5692   -0.6006    0.0000 H   0  0  0  0  0  0  0  0  0  0  0  0
   -0.4527   -1.9228    0.0000 H   0  0  0  0  0  0  0  0  0  0  0  0
    0.0428   -2.4732    0.0000 H   0  0  0  0  0  0  0  0  0  0  0  0
    0.6860   -3.3186    0.0000 H   0  0  0  0  0  0  0  0  0  0  0  0
    3.5762   -1.7116    0.0000 H   0  0  0  0  0  0  0  0  0  0  0  0
    2.7512   -0.8866    0.0000 H   0  0  0  0  0  0  0  0  0  0  0  0
    1.9262   -1.7116    0.0000 H   0  0  0  0  0  0  0  0  0  0  0  0
  1  2  1  0  0  0  0
  2  3  1  0  0  0  0
  3  4  1  0  0  0  0
  3  5  2  0  0  0  0
  5  6  1  0  0  0  0
  6  7  1  0  0  0  0
  6  8  2  0  0  0  0
  2  8  1  0  0  0  0
  8  9  1  0  0  0  0
  9 10  1  0  0  0  0
 10 11  2  0  0  0  0
 10 12  1  0  0  0  0
 12 13  1  0  0  0  0
 13 14  2  0  0  0  0
 14 15  1  0  0  0  0
 14 16  1  0  0  0  0
 16 17  1  0  0  0  0
 16 18  2  0  0  0  0
 18 19  1  0  0  0  0
 18 20  1  0  0  0  0
 20 21  1  0  0  0  0
 20 22  2  0  0  0  0
 13 22  1  0  0  0  0
 22 23  1  0  0  0  0
 12 24  1  0  0  0  0
 12 25  1  0  0  0  0
  9 26  1  0  0  0  0
  1 27  1  0  0  0  0
  1 28  1  0  0  0  0
  1 29  1  0  0  0  0
M  END
> <Potency>
93.8839238811251

> <pIC50>
4.027408767344558

> <Outcome>
Inactive

> <is_active>
0

$$$$

  Mrv1921 08232120312D          

 36 38  0  0  0  0            999 V2000
   -1.4289    0.8250    0.0000 O   0  0  0  0  0  0  0  0  0  0  0  0
   -0.7145    1.2375    0.0000 C   0  0  0  0  0  0  0  0  0  0  0  0
   -0.7145    2.0625    0.0000 C   0  0  0  0  0  0  0  0  0  0  0  0
   -1.4289    2.4750    0.0000 C   0  0  0  0  0  0  0  0  0  0  0  0
   -2.1434    2.0625    0.0000 C   0  0  0  0  0  0  0  0  0  0  0  0
   -2.1434    1.2375    0.0000 H   0  0  0  0  0  0  0  0  0  0  0  0
   -2.8579    2.4750    0.0000 C   0  0  0  0  0  0  0  0  0  0  0  0
   -3.5724    2.0625    0.0000 H   0  0  0  0  0  0  0  0  0  0  0  0
   -2.8579    3.3000    0.0000 C   0  0  0  0  0  0  0  0  0  0  0  0
   -3.5724    3.7125    0.0000 H   0  0  0  0  0  0  0  0  0  0  0  0
   -2.1434    3.7125    0.0000 C   0  0  0  0  0  0  0  0  0  0  0  0
   -2.1434    4.5375    0.0000 Cl  0  0  0  0  0  0  0  0  0  0  0  0
   -1.4289    3.3000    0.0000 C   0  0  0  0  0  0  0  0  0  0  0  0
   -0.7145    3.7125    0.0000 H   0  0  0  0  0  0  0  0  0  0  0  0
    0.1091    2.1105    0.0000 H   0  0  0  0  0  0  0  0  0  0  0  0
   -0.2611    2.7518    0.0000 H   0  0  0  0  0  0  0  0  0  0  0  0
    0.0000    0.8250    0.0000 N   0  0  0  0  0  0  0  0  0  0  0  0
    0.0000   -0.0000    0.0000 C   0  0  0  0  0  0  0  0  0  0  0  0
   -0.7145   -0.4125    0.0000 C   0  0  0  0  0  0  0  0  0  0  0  0
   -1.4289   -0.0000    0.0000 H   0  0  0  0  0  0  0  0  0  0  0  0
   -0.7145   -1.2375    0.0000 N   0  0  0  0  0  0  0  0  0  0  0  0
    0.0000   -1.6500    0.0000 C   0  0  0  0  0  0  0  0  0  0  0  0
    0.0000   -2.4750    0.0000 H   0  0  0  0  0  0  0  0  0  0  0  0
    0.7145   -1.2375    0.0000 C   0  0  0  0  0  0  0  0  0  0  0  0
    0.7145   -0.4125    0.0000 C   0  0  0  0  0  0  0  0  0  0  0  0
    1.4289   -0.0000    0.0000 O   0  0  0  0  0  0  0  0  0  0  0  0
    2.1434   -0.4125    0.0000 C   0  0  0  0  0  0  0  0  0  0  0  0
    2.1434   -1.2375    0.0000 C   0  0  0  0  0  0  0  0  0  0  0  0
    1.4289   -1.6500    0.0000 C   0  0  0  0  0  0  0  0  0  0  0  0
    1.0587   -2.3872    0.0000 H   0  0  0  0  0  0  0  0  0  0  0  0
    1.7992   -2.3872    0.0000 H   0  0  0  0  0  0  0  0  0  0  0  0
    2.5968   -1.9268    0.0000 H   0  0  0  0  0  0  0  0  0  0  0  0
    2.9670   -1.2855    0.0000 H   0  0  0  0  0  0  0  0  0  0  0  0
    2.9670   -0.3645    0.0000 H   0  0  0  0  0  0  0  0  0  0  0  0
    2.5968    0.2768    0.0000 H   0  0  0  0  0  0  0  0  0  0  0  0
    0.7145    1.2375    0.0000 H   0  0  0  0  0  0  0  0  0  0  0  0
  1  2  2  0  0  0  0
  2  3  1  0  0  0  0
  3  4  1  0  0  0  0
  4  5  2  0  0  0  0
  5  6  1  0  0  0  0
  5  7  1  0  0  0  0
  7  8  1  0  0  0  0
  7  9  2  0  0  0  0
  9 10  1  0  0  0  0
  9 11  1  0  0  0  0
 11 12  1  0  0  0  0
 11 13  2  0  0  0  0
  4 13  1  0  0  0  0
 13 14  1  0  0  0  0
  3 15  1  0  0  0  0
  3 16  1  0  0  0  0
  2 17  1  0  0  0  0
 17 18  1  0  0  0  0
 18 19  2  0  0  0  0
 19 20  1  0  0  0  0
 19 21  1  0  0  0  0
 21 22  2  0  0  0  0
 22 23  1  0  0  0  0
 22 24  1  0  0  0  0
 24 25  2  0  0  0  0
 18 25  1  0  0  0  0
 25 26  1  0  0  0  0
 26 27  1  0  0  0  0
 27 28  1  0  0  0  0
 28 29  1  0  0  0  0
 24 29  1  0  0  0  0
 29 30  1  0  0  0  0
 29 31  1  0  0  0  0
 28 32  1  0  0  0  0
 28 33  1  0  0  0  0
 27 34  1  0  0  0  0
 27 35  1  0  0  0  0
 17 36  1  0  0  0  0
M  END
> <Potency>
11.8845465740254

> <pIC50>
4.925017383069598

> <Outcome>
Inactive

> <is_active>
0

$$$$

  Mrv1921 08232120312D          

 44 47  0  0  0  0            999 V2000
    0.0000   -2.4750    0.0000 O   0  0  0  0  0  0  0  0  0  0  0  0
    0.7145   -2.8875    0.0000 C   0  0  0  0  0  0  0  0  0  0  0  0
    0.7145   -3.7125    0.0000 C   0  0  0  0  0  0  0  0  0  0  0  0
    0.0000   -4.1250    0.0000 C   0  0  0  0  0  0  0  0  0  0  0  0
    0.0000   -4.9500    0.0000 C   0  0  0  0  0  0  0  0  0  0  0  0
    0.7145   -5.3625    0.0000 H   0  0  0  0  0  0  0  0  0  0  0  0
   -0.7145   -5.3625    0.0000 C   0  0  0  0  0  0  0  0  0  0  0  0
   -0.7145   -6.1875    0.0000 Cl  0  0  0  0  0  0  0  0  0  0  0  0
   -1.4289   -4.9500    0.0000 C   0  0  0  0  0  0  0  0  0  0  0  0
   -2.1434   -5.3625    0.0000 H   0  0  0  0  0  0  0  0  0  0  0  0
   -1.4289   -4.1250    0.0000 C   0  0  0  0  0  0  0  0  0  0  0  0
   -2.1434   -3.7125    0.0000 O   0  0  0  0  0  0  0  0  0  0  0  0
   -2.8579   -4.1250    0.0000 C   0  0  0  0  0  0  0  0  0  0  0  0
   -3.0714   -4.9219    0.0000 C   0  0  0  0  0  0  0  0  0  0  0  0
   -3.0714   -5.7469    0.0000 H   0  0  0  0  0  0  0  0  0  0  0  0
   -2.3569   -5.3344    0.0000 H   0  0  0  0  0  0  0  0  0  0  0  0
   -3.8683   -4.7084    0.0000 C   0  0  0  0  0  0  0  0  0  0  0  0
   -4.5828   -5.1209    0.0000 O   0  0  0  0  0  0  0  0  0  0  0  0
   -3.6548   -3.9115    0.0000 N   0  0  0  0  0  0  0  0  0  0  0  0
   -4.3554   -3.4758    0.0000 H   0  0  0  0  0  0  0  0  0  0  0  0
   -2.9656   -3.3071    0.0000 H   0  0  0  0  0  0  0  0  0  0  0  0
   -0.7145   -3.7125    0.0000 C   0  0  0  0  0  0  0  0  0  0  0  0
   -0.7145   -2.8875    0.0000 H   0  0  0  0  0  0  0  0  0  0  0  0
    1.1678   -4.4018    0.0000 H   0  0  0  0  0  0  0  0  0  0  0  0
    1.5381   -3.7605    0.0000 H   0  0  0  0  0  0  0  0  0  0  0  0
    1.4289   -2.4750    0.0000 N   0  0  0  0  0  0  0  0  0  0  0  0
    1.4289   -1.6500    0.0000 C   0  0  0  0  0  0  0  0  0  0  0  0
    0.7145   -1.2375    0.0000 C   0  0  0  0  0  0  0  0  0  0  0  0
    0.0000   -1.6500    0.0000 H   0  0  0  0  0  0  0  0  0  0  0  0
    0.7145   -0.4125    0.0000 C   0  0  0  0  0  0  0  0  0  0  0  0
    0.0000    0.0000    0.0000 O   0  0  0  0  0  0  0  0  0  0  0  0
    1.4289    0.0000    0.0000 N   0  0  0  0  0  0  0  0  0  0  0  0
    1.4289    0.8250    0.0000 H   0  0  0  0  0  0  0  0  0  0  0  0
    2.1434   -0.4125    0.0000 C   0  0  0  0  0  0  0  0  0  0  0  0
    2.8579    0.0000    0.0000 C   0  0  0  0  0  0  0  0  0  0  0  0
    3.5724   -0.4125    0.0000 C   0  0  0  0  0  0  0  0  0  0  0  0
    3.5724   -1.2375    0.0000 C   0  0  0  0  0  0  0  0  0  0  0  0
    2.8579   -1.6500    0.0000 C   0  0  0  0  0  0  0  0  0  0  0  0
    2.8579   -2.4750    0.0000 H   0  0  0  0  0  0  0  0  0  0  0  0
    2.1434   -1.2375    0.0000 C   0  0  0  0  0  0  0  0  0  0  0  0
    4.2868   -1.6500    0.0000 H   0  0  0  0  0  0  0  0  0  0  0  0
    4.2868   -0.0000    0.0000 H   0  0  0  0  0  0  0  0  0  0  0  0
    2.8579    0.8250    0.0000 H   0  0  0  0  0  0  0  0  0  0  0  0
    2.1434   -2.8875    0.0000 H   0  0  0  0  0  0  0  0  0  0  0  0
  1  2  2  0  0  0  0
  2  3  1  0  0  0  0
  3  4  1  0  0  0  0
  4  5  2  0  0  0  0
  5  6  1  0  0  0  0
  5  7  1  0  0  0  0
  7  8  1  0  0  0  0
  7  9  2  0  0  0  0
  9 10  1  0  0  0  0
  9 11  1  0  0  0  0
 11 12  1  0  0  0  0
 12 13  1  0  0  0  0
 13 14  1  0  0  0  0
 14 15  1  0  0  0  0
 14 16  1  0  0  0  0
 14 17  1  0  0  0  0
 17 18  2  0  0  0  0
 17 19  1  0  0  0  0
 13 19  1  0  0  0  0
 19 20  1  0  0  0  0
 13 21  1  0  0  0  0
 11 22  2  0  0  0  0
  4 22  1  0  0  0  0
 22 23  1  0  0  0  0
  3 24  1  0  0  0  0
  3 25  1  0  0  0  0
  2 26  1  0  0  0  0
 26 27  1  0  0  0  0
 27 28  4  0  0  0  0
 28 29  1  0  0  0  0
 28 30  4  0  0  0  0
 30 31  2  0  0  0  0
 30 32  4  0  0  0  0
 32 33  1  0  0  0  0
 32 34  4  0  0  0  0
 34 35  4  0  0  0  0
 35 36  4  0  0  0  0
 36 37  4  0  0  0  0
 37 38  4  0  0  0  0
 38 39  1  0  0  0  0
 38 40  4  0  0  0  0
 27 40  4  0  0  0  0
 34 40  4  0  0  0  0
 37 41  1  0  0  0  0
 36 42  1  0  0  0  0
 35 43  1  0  0  0  0
 26 44  1  0  0  0  0
M  END
> <Potency>
83.2810282152651

> <pIC50>
4.0794539215203445

> <Outcome>
Inactive

> <is_active>
0

$$$$

  Mrv1921 08232120312D          

 41 43  0  0  0  0            999 V2000
   -0.8212    9.3027    0.0000 C   0  0  0  0  0  0  0  0  0  0  0  0
   -0.1067    9.7152    0.0000 C   0  0  0  0  0  0  0  0  0  0  0  0
   -0.1067   10.5402    0.0000 C   0  0  0  0  0  0  0  0  0  0  0  0
   -0.8212   10.9527    0.0000 H   0  0  0  0  0  0  0  0  0  0  0  0
    0.6078   10.9527    0.0000 C   0  0  0  0  0  0  0  0  0  0  0  0
    0.6078   11.7777    0.0000 H   0  0  0  0  0  0  0  0  0  0  0  0
    1.3222   10.5402    0.0000 N   0  0  0  0  0  0  0  0  0  0  0  0
    1.3222    9.7152    0.0000 C   0  0  0  0  0  0  0  0  0  0  0  0
    2.0367    9.3027    0.0000 H   0  0  0  0  0  0  0  0  0  0  0  0
    0.6078    9.3027    0.0000 C   0  0  0  0  0  0  0  0  0  0  0  0
    0.6078    8.4777    0.0000 N   0  0  0  0  0  0  0  0  0  0  0  0
    1.3222    8.0652    0.0000 C   0  0  0  0  0  0  0  0  0  0  0  0
    2.0367    8.4777    0.0000 O   0  0  0  0  0  0  0  0  0  0  0  0
    1.3222    7.2402    0.0000 C   0  0  0  0  0  0  0  0  0  0  0  0
    2.0367    6.8277    0.0000 C   0  0  0  0  0  0  0  0  0  0  0  0
    2.7512    7.2402    0.0000 C   0  0  0  0  0  0  0  0  0  0  0  0
    2.7512    8.0652    0.0000 H   0  0  0  0  0  0  0  0  0  0  0  0
    3.4656    6.8277    0.0000 C   0  0  0  0  0  0  0  0  0  0  0  0
    4.1801    7.2402    0.0000 Cl  0  0  0  0  0  0  0  0  0  0  0  0
    3.4656    6.0027    0.0000 C   0  0  0  0  0  0  0  0  0  0  0  0
    4.1801    5.5902    0.0000 H   0  0  0  0  0  0  0  0  0  0  0  0
    2.7512    5.5902    0.0000 C   0  0  0  0  0  0  0  0  0  0  0  0
    2.7512    4.7652    0.0000 O   0  0  0  0  0  0  0  0  0  0  0  0
    3.4656    4.3527    0.0000 C   0  0  0  0  0  0  0  0  0  0  0  0
    3.4656    3.5277    0.0000 C   0  0  0  0  0  0  0  0  0  0  0  0
    4.1331    3.0428    0.0000 N   0  0  0  0  0  0  0  0  0  0  0  0
    3.8781    2.2581    0.0000 C   0  0  0  0  0  0  0  0  0  0  0  0
    4.3631    1.5907    0.0000 H   0  0  0  0  0  0  0  0  0  0  0  0
    3.0531    2.2581    0.0000 N   0  0  0  0  0  0  0  0  0  0  0  0
    2.7982    3.0428    0.0000 N   0  0  0  0  0  0  0  0  0  0  0  0
    2.0136    3.2977    0.0000 H   0  0  0  0  0  0  0  0  0  0  0  0
    4.2893    4.4006    0.0000 H   0  0  0  0  0  0  0  0  0  0  0  0
    3.9190    5.0420    0.0000 H   0  0  0  0  0  0  0  0  0  0  0  0
    2.0367    6.0027    0.0000 C   0  0  0  0  0  0  0  0  0  0  0  0
    1.3222    5.5902    0.0000 H   0  0  0  0  0  0  0  0  0  0  0  0
    0.4986    7.1922    0.0000 H   0  0  0  0  0  0  0  0  0  0  0  0
    0.8689    6.5509    0.0000 H   0  0  0  0  0  0  0  0  0  0  0  0
   -0.1067    8.0652    0.0000 H   0  0  0  0  0  0  0  0  0  0  0  0
   -1.2337   10.0172    0.0000 H   0  0  0  0  0  0  0  0  0  0  0  0
   -1.5356    8.8902    0.0000 H   0  0  0  0  0  0  0  0  0  0  0  0
   -0.4087    8.5882    0.0000 H   0  0  0  0  0  0  0  0  0  0  0  0
  1  2  1  0  0  0  0
  2  3  2  0  0  0  0
  3  4  1  0  0  0  0
  3  5  1  0  0  0  0
  5  6  1  0  0  0  0
  5  7  2  0  0  0  0
  7  8  1  0  0  0  0
  8  9  1  0  0  0  0
  8 10  2  0  0  0  0
  2 10  1  0  0  0  0
 10 11  1  0  0  0  0
 11 12  1  0  0  0  0
 12 13  2  0  0  0  0
 12 14  1  0  0  0  0
 14 15  1  0  0  0  0
 15 16  2  0  0  0  0
 16 17  1  0  0  0  0
 16 18  1  0  0  0  0
 18 19  1  0  0  0  0
 18 20  2  0  0  0  0
 20 21  1  0  0  0  0
 20 22  1  0  0  0  0
 22 23  1  0  0  0  0
 23 24  1  0  0  0  0
 24 25  1  0  0  0  0
 25 26  2  0  0  0  0
 26 27  1  0  0  0  0
 27 28  1  0  0  0  0
 27 29  2  0  0  0  0
 29 30  1  0  0  0  0
 25 30  1  0  0  0  0
 30 31  1  0  0  0  0
 24 32  1  0  0  0  0
 24 33  1  0  0  0  0
 22 34  2  0  0  0  0
 15 34  1  0  0  0  0
 34 35  1  0  0  0  0
 14 36  1  0  0  0  0
 14 37  1  0  0  0  0
 11 38  1  0  0  0  0
  1 39  1  0  0  0  0
  1 40  1  0  0  0  0
  1 41  1  0  0  0  0
M  END
> <Potency>
37.0307548055458

> <pIC50>
4.431437435545952

> <Outcome>
Inactive

> <is_active>
0

$$$$

  Mrv1921 08232120312D          

 41 42  0  0  0  0            999 V2000
   -0.7145    1.2375    0.0000 C   0  0  0  0  0  0  0  0  0  0  0  0
   -1.4289    0.8250    0.0000 C   0  0  0  0  0  0  0  0  0  0  0  0
   -2.1434    1.2375    0.0000 O   0  0  0  0  0  0  0  0  0  0  0  0
   -1.4289   -0.0000    0.0000 N   0  0  0  0  0  0  0  0  0  0  0  0
   -2.1434   -0.4125    0.0000 C   0  0  0  0  0  0  0  0  0  0  0  0
   -2.1434   -1.2375    0.0000 C   0  0  0  0  0  0  0  0  0  0  0  0
   -1.4289   -1.6500    0.0000 C   0  0  0  0  0  0  0  0  0  0  0  0
   -0.7145   -1.2375    0.0000 H   0  0  0  0  0  0  0  0  0  0  0  0
   -1.4289   -2.4750    0.0000 C   0  0  0  0  0  0  0  0  0  0  0  0
   -0.7145   -2.8875    0.0000 Cl  0  0  0  0  0  0  0  0  0  0  0  0
   -2.1434   -2.8875    0.0000 C   0  0  0  0  0  0  0  0  0  0  0  0
   -2.1434   -3.7125    0.0000 H   0  0  0  0  0  0  0  0  0  0  0  0
   -2.8579   -2.4750    0.0000 C   0  0  0  0  0  0  0  0  0  0  0  0
   -3.5724   -2.8875    0.0000 C   0  0  0  0  0  0  0  0  0  0  0  0
   -4.2868   -2.4750    0.0000 C   0  0  0  0  0  0  0  0  0  0  0  0
   -4.2868   -1.6500    0.0000 O   0  0  0  0  0  0  0  0  0  0  0  0
   -5.0013   -2.8875    0.0000 N   0  0  0  0  0  0  0  0  0  0  0  0
   -5.0013   -3.7125    0.0000 C   0  0  0  0  0  0  0  0  0  0  0  0
   -4.2868   -4.1250    0.0000 C   0  0  0  0  0  0  0  0  0  0  0  0
   -3.4990   -4.3699    0.0000 H   0  0  0  0  0  0  0  0  0  0  0  0
   -4.2868   -4.9500    0.0000 N   0  0  0  0  0  0  0  0  0  0  0  0
   -5.0013   -5.3625    0.0000 C   0  0  0  0  0  0  0  0  0  0  0  0
   -5.0013   -6.1875    0.0000 H   0  0  0  0  0  0  0  0  0  0  0  0
   -5.7158   -4.9500    0.0000 C   0  0  0  0  0  0  0  0  0  0  0  0
   -6.4302   -5.3625    0.0000 H   0  0  0  0  0  0  0  0  0  0  0  0
   -5.7158   -4.1250    0.0000 C   0  0  0  0  0  0  0  0  0  0  0  0
   -6.4302   -3.7125    0.0000 C   0  0  0  0  0  0  0  0  0  0  0  0
   -6.0177   -2.9980    0.0000 H   0  0  0  0  0  0  0  0  0  0  0  0
   -7.1447   -3.3000    0.0000 H   0  0  0  0  0  0  0  0  0  0  0  0
   -6.8427   -4.4270    0.0000 H   0  0  0  0  0  0  0  0  0  0  0  0
   -5.7158   -2.4750    0.0000 H   0  0  0  0  0  0  0  0  0  0  0  0
   -3.9426   -3.6247    0.0000 H   0  0  0  0  0  0  0  0  0  0  0  0
   -3.2021   -3.6247    0.0000 H   0  0  0  0  0  0  0  0  0  0  0  0
   -2.8579   -1.6500    0.0000 C   0  0  0  0  0  0  0  0  0  0  0  0
   -3.5724   -1.2375    0.0000 H   0  0  0  0  0  0  0  0  0  0  0  0
   -2.5968    0.2768    0.0000 H   0  0  0  0  0  0  0  0  0  0  0  0
   -2.9670   -0.3645    0.0000 H   0  0  0  0  0  0  0  0  0  0  0  0
   -0.7145   -0.4125    0.0000 H   0  0  0  0  0  0  0  0  0  0  0  0
   -0.3020    0.5230    0.0000 H   0  0  0  0  0  0  0  0  0  0  0  0
    0.0000    1.6500    0.0000 H   0  0  0  0  0  0  0  0  0  0  0  0
   -1.1270    1.9520    0.0000 H   0  0  0  0  0  0  0  0  0  0  0  0
  1  2  1  0  0  0  0
  2  3  2  0  0  0  0
  2  4  1  0  0  0  0
  4  5  1  0  0  0  0
  5  6  1  0  0  0  0
  6  7  2  0  0  0  0
  7  8  1  0  0  0  0
  7  9  1  0  0  0  0
  9 10  1  0  0  0  0
  9 11  2  0  0  0  0
 11 12  1  0  0  0  0
 11 13  1  0  0  0  0
 13 14  1  0  0  0  0
 14 15  1  0  0  0  0
 15 16  2  0  0  0  0
 15 17  1  0  0  0  0
 17 18  1  0  0  0  0
 18 19  2  0  0  0  0
 19 20  1  0  0  0  0
 19 21  1  0  0  0  0
 21 22  2  0  0  0  0
 22 23  1  0  0  0  0
 22 24  1  0  0  0  0
 24 25  1  0  0  0  0
 24 26  2  0  0  0  0
 18 26  1  0  0  0  0
 26 27  1  0  0  0  0
 27 28  1  0  0  0  0
 27 29  1  0  0  0  0
 27 30  1  0  0  0  0
 17 31  1  0  0  0  0
 14 32  1  0  0  0  0
 14 33  1  0  0  0  0
 13 34  2  0  0  0  0
  6 34  1  0  0  0  0
 34 35  1  0  0  0  0
  5 36  1  0  0  0  0
  5 37  1  0  0  0  0
  4 38  1  0  0  0  0
  1 39  1  0  0  0  0
  1 40  1  0  0  0  0
  1 41  1  0  0  0  0
M  END
> <Potency>
41.3300365217479

> <pIC50>
4.383734210948957

> <Outcome>
Inactive

> <is_active>
0

$$$$

  Mrv1921 08232120312D          

 38 39  0  0  0  0            999 V2000
   -1.4289    0.8250    0.0000 C   0  0  0  0  0  0  0  0  0  0  0  0
   -1.4289   -0.0000    0.0000 N   0  0  0  0  0  0  0  0  0  0  0  0
   -2.1434   -0.4125    0.0000 C   0  0  0  0  0  0  0  0  0  0  0  0
   -2.8579    0.0000    0.0000 O   0  0  0  0  0  0  0  0  0  0  0  0
   -2.1434   -1.2375    0.0000 C   0  0  0  0  0  0  0  0  0  0  0  0
   -1.4289   -1.6500    0.0000 C   0  0  0  0  0  0  0  0  0  0  0  0
   -0.7145   -1.2375    0.0000 H   0  0  0  0  0  0  0  0  0  0  0  0
   -1.4289   -2.4750    0.0000 C   0  0  0  0  0  0  0  0  0  0  0  0
   -0.7145   -2.8875    0.0000 Cl  0  0  0  0  0  0  0  0  0  0  0  0
   -2.1434   -2.8875    0.0000 C   0  0  0  0  0  0  0  0  0  0  0  0
   -2.1434   -3.7125    0.0000 H   0  0  0  0  0  0  0  0  0  0  0  0
   -2.8579   -2.4750    0.0000 C   0  0  0  0  0  0  0  0  0  0  0  0
   -3.5724   -2.8875    0.0000 C   0  0  0  0  0  0  0  0  0  0  0  0
   -4.2868   -2.4750    0.0000 C   0  0  0  0  0  0  0  0  0  0  0  0
   -4.2868   -1.6500    0.0000 O   0  0  0  0  0  0  0  0  0  0  0  0
   -5.0013   -2.8875    0.0000 N   0  0  0  0  0  0  0  0  0  0  0  0
   -5.0013   -3.7125    0.0000 C   0  0  0  0  0  0  0  0  0  0  0  0
   -4.2868   -4.1250    0.0000 C   0  0  0  0  0  0  0  0  0  0  0  0
   -3.4990   -4.3699    0.0000 H   0  0  0  0  0  0  0  0  0  0  0  0
   -4.2868   -4.9500    0.0000 N   0  0  0  0  0  0  0  0  0  0  0  0
   -5.0013   -5.3625    0.0000 C   0  0  0  0  0  0  0  0  0  0  0  0
   -5.0013   -6.1875    0.0000 H   0  0  0  0  0  0  0  0  0  0  0  0
   -5.7158   -4.9500    0.0000 C   0  0  0  0  0  0  0  0  0  0  0  0
   -6.4302   -5.3625    0.0000 H   0  0  0  0  0  0  0  0  0  0  0  0
   -5.7158   -4.1250    0.0000 C   0  0  0  0  0  0  0  0  0  0  0  0
   -6.4302   -3.7125    0.0000 C   0  0  0  0  0  0  0  0  0  0  0  0
   -6.0177   -2.9980    0.0000 H   0  0  0  0  0  0  0  0  0  0  0  0
   -7.1447   -3.3000    0.0000 H   0  0  0  0  0  0  0  0  0  0  0  0
   -6.8427   -4.4270    0.0000 H   0  0  0  0  0  0  0  0  0  0  0  0
   -5.7158   -2.4750    0.0000 H   0  0  0  0  0  0  0  0  0  0  0  0
   -3.9426   -3.6247    0.0000 H   0  0  0  0  0  0  0  0  0  0  0  0
   -3.2021   -3.6247    0.0000 H   0  0  0  0  0  0  0  0  0  0  0  0
   -2.8579   -1.6500    0.0000 C   0  0  0  0  0  0  0  0  0  0  0  0
   -3.5724   -1.2375    0.0000 H   0  0  0  0  0  0  0  0  0  0  0  0
   -0.7145   -0.4125    0.0000 H   0  0  0  0  0  0  0  0  0  0  0  0
   -0.6039    0.8250    0.0000 H   0  0  0  0  0  0  0  0  0  0  0  0
   -1.4289    1.6500    0.0000 H   0  0  0  0  0  0  0  0  0  0  0  0
   -2.2539    0.8250    0.0000 H   0  0  0  0  0  0  0  0  0  0  0  0
  1  2  1  0  0  0  0
  2  3  1  0  0  0  0
  3  4  2  0  0  0  0
  3  5  1  0  0  0  0
  5  6  2  0  0  0  0
  6  7  1  0  0  0  0
  6  8  1  0  0  0  0
  8  9  1  0  0  0  0
  8 10  2  0  0  0  0
 10 11  1  0  0  0  0
 10 12  1  0  0  0  0
 12 13  1  0  0  0  0
 13 14  1  0  0  0  0
 14 15  2  0  0  0  0
 14 16  1  0  0  0  0
 16 17  1  0  0  0  0
 17 18  2  0  0  0  0
 18 19  1  0  0  0  0
 18 20  1  0  0  0  0
 20 21  2  0  0  0  0
 21 22  1  0  0  0  0
 21 23  1  0  0  0  0
 23 24  1  0  0  0  0
 23 25  2  0  0  0  0
 17 25  1  0  0  0  0
 25 26  1  0  0  0  0
 26 27  1  0  0  0  0
 26 28  1  0  0  0  0
 26 29  1  0  0  0  0
 16 30  1  0  0  0  0
 13 31  1  0  0  0  0
 13 32  1  0  0  0  0
 12 33  2  0  0  0  0
  5 33  1  0  0  0  0
 33 34  1  0  0  0  0
  2 35  1  0  0  0  0
  1 36  1  0  0  0  0
  1 37  1  0  0  0  0
  1 38  1  0  0  0  0
M  END
> <Potency>
51.489236676764

> <pIC50>
4.288283546501112

> <Outcome>
Inactive

> <is_active>
0

$$$$

  Mrv1921 08232120312D          

 42 43  0  0  0  0            999 V2000
   -1.4289   -1.6500    0.0000 C   0  0  0  0  0  0  0  0  0  0  0  0
   -1.4289   -2.4750    0.0000 C   0  0  0  0  0  0  0  0  0  0  0  0
   -0.7145   -2.8875    0.0000 C   0  0  0  0  0  0  0  0  0  0  0  0
    0.0000   -2.4750    0.0000 H   0  0  0  0  0  0  0  0  0  0  0  0
   -0.7145   -3.7125    0.0000 C   0  0  0  0  0  0  0  0  0  0  0  0
    0.0000   -4.1250    0.0000 H   0  0  0  0  0  0  0  0  0  0  0  0
   -1.4289   -4.1250    0.0000 N   0  0  0  0  0  0  0  0  0  0  0  0
   -2.1434   -3.7125    0.0000 C   0  0  0  0  0  0  0  0  0  0  0  0
   -2.8579   -4.1250    0.0000 H   0  0  0  0  0  0  0  0  0  0  0  0
   -2.1434   -2.8875    0.0000 C   0  0  0  0  0  0  0  0  0  0  0  0
   -2.8579   -2.4750    0.0000 N   0  0  0  0  0  0  0  0  0  0  0  0
   -3.5724   -2.8875    0.0000 C   0  0  0  0  0  0  0  0  0  0  0  0
   -3.5724   -3.7125    0.0000 O   0  0  0  0  0  0  0  0  0  0  0  0
   -4.2868   -2.4750    0.0000 C   0  0  0  0  0  0  0  0  0  0  0  0
   -5.0013   -2.8875    0.0000 C   0  0  0  0  0  0  0  0  0  0  0  0
   -5.0013   -3.7125    0.0000 C   0  0  0  0  0  0  0  0  0  0  0  0
   -4.2868   -4.1250    0.0000 H   0  0  0  0  0  0  0  0  0  0  0  0
   -5.7158   -4.1250    0.0000 C   0  0  0  0  0  0  0  0  0  0  0  0
   -5.7158   -4.9500    0.0000 Cl  0  0  0  0  0  0  0  0  0  0  0  0
   -6.4302   -3.7125    0.0000 C   0  0  0  0  0  0  0  0  0  0  0  0
   -7.1447   -4.1250    0.0000 H   0  0  0  0  0  0  0  0  0  0  0  0
   -6.4302   -2.8875    0.0000 C   0  0  0  0  0  0  0  0  0  0  0  0
   -7.1447   -2.4750    0.0000 C   0  0  0  0  0  0  0  0  0  0  0  0
   -7.1447   -1.6500    0.0000 N   0  0  0  0  0  0  0  0  0  0  0  0
   -7.8592   -1.2375    0.0000 S   0  0  0  0  0  0  0  0  0  0  0  0
   -8.5737   -0.8250    0.0000 C   0  0  0  0  0  0  0  0  0  0  0  0
   -8.1612   -0.1105    0.0000 H   0  0  0  0  0  0  0  0  0  0  0  0
   -9.2881   -0.4125    0.0000 H   0  0  0  0  0  0  0  0  0  0  0  0
   -8.9862   -1.5395    0.0000 H   0  0  0  0  0  0  0  0  0  0  0  0
   -7.4467   -0.5230    0.0000 O   0  0  0  0  0  0  0  0  0  0  0  0
   -8.2717   -1.9520    0.0000 O   0  0  0  0  0  0  0  0  0  0  0  0
   -6.4302   -1.2375    0.0000 H   0  0  0  0  0  0  0  0  0  0  0  0
   -7.9683   -2.5230    0.0000 H   0  0  0  0  0  0  0  0  0  0  0  0
   -7.5981   -3.1643    0.0000 H   0  0  0  0  0  0  0  0  0  0  0  0
   -5.7158   -2.4750    0.0000 C   0  0  0  0  0  0  0  0  0  0  0  0
   -5.7158   -1.6500    0.0000 H   0  0  0  0  0  0  0  0  0  0  0  0
   -3.9166   -1.7378    0.0000 H   0  0  0  0  0  0  0  0  0  0  0  0
   -4.6571   -1.7378    0.0000 H   0  0  0  0  0  0  0  0  0  0  0  0
   -2.8579   -1.6500    0.0000 H   0  0  0  0  0  0  0  0  0  0  0  0
   -0.6039   -1.6500    0.0000 H   0  0  0  0  0  0  0  0  0  0  0  0
   -1.4289   -0.8250    0.0000 H   0  0  0  0  0  0  0  0  0  0  0  0
   -2.2539   -1.6500    0.0000 H   0  0  0  0  0  0  0  0  0  0  0  0
  1  2  1  0  0  0  0
  2  3  2  0  0  0  0
  3  4  1  0  0  0  0
  3  5  1  0  0  0  0
  5  6  1  0  0  0  0
  5  7  2  0  0  0  0
  7  8  1  0  0  0  0
  8  9  1  0  0  0  0
  8 10  2  0  0  0  0
  2 10  1  0  0  0  0
 10 11  1  0  0  0  0
 11 12  1  0  0  0  0
 12 13  2  0  0  0  0
 12 14  1  0  0  0  0
 14 15  1  0  0  0  0
 15 16  2  0  0  0  0
 16 17  1  0  0  0  0
 16 18  1  0  0  0  0
 18 19  1  0  0  0  0
 18 20  2  0  0  0  0
 20 21  1  0  0  0  0
 20 22  1  0  0  0  0
 22 23  1  0  0  0  0
 23 24  1  0  0  0  0
 24 25  1  0  0  0  0
 25 26  1  0  0  0  0
 26 27  1  0  0  0  0
 26 28  1  0  0  0  0
 26 29  1  0  0  0  0
 25 30  2  0  0  0  0
 25 31  2  0  0  0  0
 24 32  1  0  0  0  0
 23 33  1  0  0  0  0
 23 34  1  0  0  0  0
 22 35  2  0  0  0  0
 15 35  1  0  0  0  0
 35 36  1  0  0  0  0
 14 37  1  0  0  0  0
 14 38  1  0  0  0  0
 11 39  1  0  0  0  0
  1 40  1  0  0  0  0
  1 41  1  0  0  0  0
  1 42  1  0  0  0  0
M  END
> <Potency>
16.5862090330616

> <pIC50>
4.780252865582593

> <Outcome>
Inactive

> <is_active>
0

$$$$

  Mrv1921 08232120312D          

 36 37  0  0  0  0            999 V2000
   -1.4289   -1.6500    0.0000 C   0  0  0  0  0  0  0  0  0  0  0  0
   -1.4289   -2.4750    0.0000 C   0  0  0  0  0  0  0  0  0  0  0  0
   -0.7145   -2.8875    0.0000 C   0  0  0  0  0  0  0  0  0  0  0  0
    0.0000   -2.4750    0.0000 H   0  0  0  0  0  0  0  0  0  0  0  0
   -0.7145   -3.7125    0.0000 C   0  0  0  0  0  0  0  0  0  0  0  0
    0.0000   -4.1250    0.0000 H   0  0  0  0  0  0  0  0  0  0  0  0
   -1.4289   -4.1250    0.0000 N   0  0  0  0  0  0  0  0  0  0  0  0
   -2.1434   -3.7125    0.0000 C   0  0  0  0  0  0  0  0  0  0  0  0
   -2.8579   -4.1250    0.0000 H   0  0  0  0  0  0  0  0  0  0  0  0
   -2.1434   -2.8875    0.0000 C   0  0  0  0  0  0  0  0  0  0  0  0
   -2.8579   -2.4750    0.0000 N   0  0  0  0  0  0  0  0  0  0  0  0
   -3.5724   -2.8875    0.0000 C   0  0  0  0  0  0  0  0  0  0  0  0
   -3.5724   -3.7125    0.0000 O   0  0  0  0  0  0  0  0  0  0  0  0
   -4.2868   -2.4750    0.0000 C   0  0  0  0  0  0  0  0  0  0  0  0
   -5.0013   -2.8875    0.0000 C   0  0  0  0  0  0  0  0  0  0  0  0
   -5.0013   -3.7125    0.0000 C   0  0  0  0  0  0  0  0  0  0  0  0
   -4.2868   -4.1250    0.0000 H   0  0  0  0  0  0  0  0  0  0  0  0
   -5.7158   -4.1250    0.0000 C   0  0  0  0  0  0  0  0  0  0  0  0
   -5.7158   -4.9500    0.0000 Cl  0  0  0  0  0  0  0  0  0  0  0  0
   -6.4302   -3.7125    0.0000 C   0  0  0  0  0  0  0  0  0  0  0  0
   -7.1447   -4.1250    0.0000 H   0  0  0  0  0  0  0  0  0  0  0  0
   -6.4302   -2.8875    0.0000 C   0  0  0  0  0  0  0  0  0  0  0  0
   -7.1447   -2.4750    0.0000 S   0  0  0  0  0  0  0  0  0  0  0  0
   -7.8592   -2.0625    0.0000 N   0  0  0  0  0  0  0  0  0  0  0  0
   -7.8592   -1.2375    0.0000 H   0  0  0  0  0  0  0  0  0  0  0  0
   -8.5737   -2.4750    0.0000 H   0  0  0  0  0  0  0  0  0  0  0  0
   -6.7322   -1.7605    0.0000 O   0  0  0  0  0  0  0  0  0  0  0  0
   -7.5572   -3.1895    0.0000 O   0  0  0  0  0  0  0  0  0  0  0  0
   -5.7158   -2.4750    0.0000 C   0  0  0  0  0  0  0  0  0  0  0  0
   -5.7158   -1.6500    0.0000 H   0  0  0  0  0  0  0  0  0  0  0  0
   -3.9166   -1.7378    0.0000 H   0  0  0  0  0  0  0  0  0  0  0  0
   -4.6571   -1.7378    0.0000 H   0  0  0  0  0  0  0  0  0  0  0  0
   -2.8579   -1.6500    0.0000 H   0  0  0  0  0  0  0  0  0  0  0  0
   -0.6039   -1.6500    0.0000 H   0  0  0  0  0  0  0  0  0  0  0  0
   -1.4289   -0.8250    0.0000 H   0  0  0  0  0  0  0  0  0  0  0  0
   -2.2539   -1.6500    0.0000 H   0  0  0  0  0  0  0  0  0  0  0  0
  1  2  1  0  0  0  0
  2  3  2  0  0  0  0
  3  4  1  0  0  0  0
  3  5  1  0  0  0  0
  5  6  1  0  0  0  0
  5  7  2  0  0  0  0
  7  8  1  0  0  0  0
  8  9  1  0  0  0  0
  8 10  2  0  0  0  0
  2 10  1  0  0  0  0
 10 11  1  0  0  0  0
 11 12  1  0  0  0  0
 12 13  2  0  0  0  0
 12 14  1  0  0  0  0
 14 15  1  0  0  0  0
 15 16  2  0  0  0  0
 16 17  1  0  0  0  0
 16 18  1  0  0  0  0
 18 19  1  0  0  0  0
 18 20  2  0  0  0  0
 20 21  1  0  0  0  0
 20 22  1  0  0  0  0
 22 23  1  0  0  0  0
 23 24  1  0  0  0  0
 24 25  1  0  0  0  0
 24 26  1  0  0  0  0
 23 27  2  0  0  0  0
 23 28  2  0  0  0  0
 22 29  2  0  0  0  0
 15 29  1  0  0  0  0
 29 30  1  0  0  0  0
 14 31  1  0  0  0  0
 14 32  1  0  0  0  0
 11 33  1  0  0  0  0
  1 34  1  0  0  0  0
  1 35  1  0  0  0  0
  1 36  1  0  0  0  0
M  END
> <Potency>
14.6132551725431

> <pIC50>
4.835253032114518

> <Outcome>
Inactive

> <is_active>
0

$$$$

  Mrv1921 08232120312D          

 34 35  0  0  0  0            999 V2000
   -0.1725    1.4698    0.0000 C   0  0  0  0  0  0  0  0  0  0  0  0
    0.5420    1.0573    0.0000 C   0  0  0  0  0  0  0  0  0  0  0  0
    0.5420    0.2323    0.0000 C   0  0  0  0  0  0  0  0  0  0  0  0
    1.2564   -0.1802    0.0000 C   0  0  0  0  0  0  0  0  0  0  0  0
    1.2564   -1.0052    0.0000 C   0  0  0  0  0  0  0  0  0  0  0  0
    1.9239   -1.4901    0.0000 N   0  0  0  0  0  0  0  0  0  0  0  0
    1.6689   -2.2748    0.0000 C   0  0  0  0  0  0  0  0  0  0  0  0
    2.1538   -2.9422    0.0000 C   0  0  0  0  0  0  0  0  0  0  0  0
    2.9788   -2.9422    0.0000 N   0  0  0  0  0  0  0  0  0  0  0  0
    3.2338   -3.7268    0.0000 C   0  0  0  0  0  0  0  0  0  0  0  0
    4.0184   -3.9818    0.0000 H   0  0  0  0  0  0  0  0  0  0  0  0
    2.5663   -4.2117    0.0000 C   0  0  0  0  0  0  0  0  0  0  0  0
    2.5663   -5.0367    0.0000 H   0  0  0  0  0  0  0  0  0  0  0  0
    1.8989   -3.7268    0.0000 N   0  0  0  0  0  0  0  0  0  0  0  0
    1.1143   -3.9818    0.0000 C   0  0  0  0  0  0  0  0  0  0  0  0
    0.9428   -4.7887    0.0000 C   0  0  0  0  0  0  0  0  0  0  0  0
    0.7712   -5.5957    0.0000 F   0  0  0  0  0  0  0  0  0  0  0  0
    0.1358   -4.6172    0.0000 F   0  0  0  0  0  0  0  0  0  0  0  0
    1.7497   -4.9603    0.0000 F   0  0  0  0  0  0  0  0  0  0  0  0
    0.8142   -3.2133    0.0000 H   0  0  0  0  0  0  0  0  0  0  0  0
    0.3187   -3.7636    0.0000 H   0  0  0  0  0  0  0  0  0  0  0  0
    0.8439   -2.2748    0.0000 C   0  0  0  0  0  0  0  0  0  0  0  0
    0.0271   -2.3909    0.0000 H   0  0  0  0  0  0  0  0  0  0  0  0
    0.5890   -1.4901    0.0000 N   0  0  0  0  0  0  0  0  0  0  0  0
   -0.1956   -1.2352    0.0000 H   0  0  0  0  0  0  0  0  0  0  0  0
    2.0800   -0.1322    0.0000 H   0  0  0  0  0  0  0  0  0  0  0  0
    1.7098    0.5091    0.0000 H   0  0  0  0  0  0  0  0  0  0  0  0
   -0.2817    0.1843    0.0000 H   0  0  0  0  0  0  0  0  0  0  0  0
    0.0886   -0.4570    0.0000 H   0  0  0  0  0  0  0  0  0  0  0  0
    1.3656    1.1053    0.0000 H   0  0  0  0  0  0  0  0  0  0  0  0
    0.9953    1.7466    0.0000 H   0  0  0  0  0  0  0  0  0  0  0  0
    0.2400    2.1843    0.0000 H   0  0  0  0  0  0  0  0  0  0  0  0
   -0.8870    1.8823    0.0000 H   0  0  0  0  0  0  0  0  0  0  0  0
   -0.5850    0.7553    0.0000 H   0  0  0  0  0  0  0  0  0  0  0  0
  1  2  1  0  0  0  0
  2  3  1  0  0  0  0
  3  4  1  0  0  0  0
  4  5  1  0  0  0  0
  5  6  2  0  0  0  0
  6  7  1  0  0  0  0
  7  8  1  0  0  0  0
  8  9  2  0  0  0  0
  9 10  1  0  0  0  0
 10 11  1  0  0  0  0
 10 12  2  0  0  0  0
 12 13  1  0  0  0  0
 12 14  1  0  0  0  0
  8 14  1  0  0  0  0
 14 15  1  0  0  0  0
 15 16  1  0  0  0  0
 16 17  1  0  0  0  0
 16 18  1  0  0  0  0
 16 19  1  0  0  0  0
 15 20  1  0  0  0  0
 15 21  1  0  0  0  0
  7 22  2  0  0  0  0
 22 23  1  0  0  0  0
 22 24  1  0  0  0  0
  5 24  1  0  0  0  0
 24 25  1  0  0  0  0
  4 26  1  0  0  0  0
  4 27  1  0  0  0  0
  3 28  1  0  0  0  0
  3 29  1  0  0  0  0
  2 30  1  0  0  0  0
  2 31  1  0  0  0  0
  1 32  1  0  0  0  0
  1 33  1  0  0  0  0
  1 34  1  0  0  0  0
M  END
> <Potency>
23.0520465897136

> <pIC50>
4.637290511351869

> <Outcome>
Inactive

> <is_active>
0

$$$$

  Mrv1921 08232120312D          

 43 45  0  0  0  0            999 V2000
   -3.2145    0.1103    0.0000 C   0  0  0  0  0  0  0  0  0  0  0  0
   -2.5001   -0.3022    0.0000 C   0  0  0  0  0  0  0  0  0  0  0  0
   -2.5001   -1.1272    0.0000 C   0  0  0  0  0  0  0  0  0  0  0  0
   -1.7856   -1.5397    0.0000 C   0  0  0  0  0  0  0  0  0  0  0  0
   -1.7856   -2.3647    0.0000 C   0  0  0  0  0  0  0  0  0  0  0  0
   -1.1181   -2.8496    0.0000 N   0  0  0  0  0  0  0  0  0  0  0  0
   -1.3731   -3.6342    0.0000 C   0  0  0  0  0  0  0  0  0  0  0  0
   -0.8882   -4.3017    0.0000 C   0  0  0  0  0  0  0  0  0  0  0  0
   -0.0632   -4.3017    0.0000 N   0  0  0  0  0  0  0  0  0  0  0  0
    0.1918   -5.0863    0.0000 C   0  0  0  0  0  0  0  0  0  0  0  0
    0.9764   -5.3412    0.0000 H   0  0  0  0  0  0  0  0  0  0  0  0
   -0.4757   -5.5712    0.0000 C   0  0  0  0  0  0  0  0  0  0  0  0
    0.2063   -6.0355    0.0000 H   0  0  0  0  0  0  0  0  0  0  0  0
   -1.1431   -5.0863    0.0000 N   0  0  0  0  0  0  0  0  0  0  0  0
   -1.9277   -5.3412    0.0000 C   0  0  0  0  0  0  0  0  0  0  0  0
   -2.0992   -6.1482    0.0000 C   0  0  0  0  0  0  0  0  0  0  0  0
   -1.4862   -6.7002    0.0000 C   0  0  0  0  0  0  0  0  0  0  0  0
   -0.7015   -6.4453    0.0000 C   0  0  0  0  0  0  0  0  0  0  0  0
   -1.3025   -5.8801    0.0000 H   0  0  0  0  0  0  0  0  0  0  0  0
   -0.0884   -6.9973    0.0000 C   0  0  0  0  0  0  0  0  0  0  0  0
    0.6962   -6.7424    0.0000 H   0  0  0  0  0  0  0  0  0  0  0  0
   -0.2600   -7.8043    0.0000 C   0  0  0  0  0  0  0  0  0  0  0  0
    0.3531   -8.3563    0.0000 H   0  0  0  0  0  0  0  0  0  0  0  0
   -1.0446   -8.0592    0.0000 C   0  0  0  0  0  0  0  0  0  0  0  0
   -1.2161   -8.8662    0.0000 H   0  0  0  0  0  0  0  0  0  0  0  0
   -1.6577   -7.5072    0.0000 N   0  0  0  0  0  0  0  0  0  0  0  0
   -2.9148   -6.0239    0.0000 H   0  0  0  0  0  0  0  0  0  0  0  0
   -2.6860   -6.7282    0.0000 H   0  0  0  0  0  0  0  0  0  0  0  0
   -2.2279   -4.5728    0.0000 H   0  0  0  0  0  0  0  0  0  0  0  0
   -2.7234   -5.1231    0.0000 H   0  0  0  0  0  0  0  0  0  0  0  0
   -2.1981   -3.6342    0.0000 C   0  0  0  0  0  0  0  0  0  0  0  0
   -3.0149   -3.7504    0.0000 H   0  0  0  0  0  0  0  0  0  0  0  0
   -2.4530   -2.8496    0.0000 N   0  0  0  0  0  0  0  0  0  0  0  0
   -3.2376   -2.5947    0.0000 H   0  0  0  0  0  0  0  0  0  0  0  0
   -0.9620   -1.4917    0.0000 H   0  0  0  0  0  0  0  0  0  0  0  0
   -1.3322   -0.8504    0.0000 H   0  0  0  0  0  0  0  0  0  0  0  0
   -3.3237   -1.1752    0.0000 H   0  0  0  0  0  0  0  0  0  0  0  0
   -2.9534   -1.8165    0.0000 H   0  0  0  0  0  0  0  0  0  0  0  0
   -1.6764   -0.2542    0.0000 H   0  0  0  0  0  0  0  0  0  0  0  0
   -2.0467    0.3871    0.0000 H   0  0  0  0  0  0  0  0  0  0  0  0
   -2.8020    0.8248    0.0000 H   0  0  0  0  0  0  0  0  0  0  0  0
   -3.9290    0.5228    0.0000 H   0  0  0  0  0  0  0  0  0  0  0  0
   -3.6270   -0.6042    0.0000 H   0  0  0  0  0  0  0  0  0  0  0  0
  1  2  1  0  0  0  0
  2  3  1  0  0  0  0
  3  4  1  0  0  0  0
  4  5  1  0  0  0  0
  5  6  2  0  0  0  0
  6  7  1  0  0  0  0
  7  8  1  0  0  0  0
  8  9  2  0  0  0  0
  9 10  1  0  0  0  0
 10 11  1  0  0  0  0
 10 12  2  0  0  0  0
 12 13  1  0  0  0  0
 12 14  1  0  0  0  0
  8 14  1  0  0  0  0
 14 15  1  0  0  0  0
 15 16  1  0  0  0  0
 16 17  1  0  0  0  0
 17 18  2  0  0  0  0
 18 19  1  0  0  0  0
 18 20  1  0  0  0  0
 20 21  1  0  0  0  0
 20 22  2  0  0  0  0
 22 23  1  0  0  0  0
 22 24  1  0  0  0  0
 24 25  1  0  0  0  0
 24 26  2  0  0  0  0
 17 26  1  0  0  0  0
 16 27  1  0  0  0  0
 16 28  1  0  0  0  0
 15 29  1  0  0  0  0
 15 30  1  0  0  0  0
  7 31  2  0  0  0  0
 31 32  1  0  0  0  0
 31 33  1  0  0  0  0
  5 33  1  0  0  0  0
 33 34  1  0  0  0  0
  4 35  1  0  0  0  0
  4 36  1  0  0  0  0
  3 37  1  0  0  0  0
  3 38  1  0  0  0  0
  2 39  1  0  0  0  0
  2 40  1  0  0  0  0
  1 41  1  0  0  0  0
  1 42  1  0  0  0  0
  1 43  1  0  0  0  0
M  END
> <Potency>
21.7432931923489

> <pIC50>
4.662674677961276

> <Outcome>
Inactive

> <is_active>
0

$$$$

  Mrv1921 08232120312D          

 38 40  0  0  0  0            999 V2000
    0.8711    4.0362    0.0000 C   0  0  0  0  0  0  0  0  0  0  0  0
    1.5856    3.6237    0.0000 C   0  0  0  0  0  0  0  0  0  0  0  0
    1.5856    2.7987    0.0000 C   0  0  0  0  0  0  0  0  0  0  0  0
    2.3000    2.3862    0.0000 C   0  0  0  0  0  0  0  0  0  0  0  0
    2.3000    1.5612    0.0000 C   0  0  0  0  0  0  0  0  0  0  0  0
    2.9675    1.0762    0.0000 N   0  0  0  0  0  0  0  0  0  0  0  0
    2.7125    0.2916    0.0000 C   0  0  0  0  0  0  0  0  0  0  0  0
    3.1975   -0.3758    0.0000 C   0  0  0  0  0  0  0  0  0  0  0  0
    4.0225   -0.3758    0.0000 N   0  0  0  0  0  0  0  0  0  0  0  0
    4.2774   -1.1605    0.0000 C   0  0  0  0  0  0  0  0  0  0  0  0
    5.0620   -1.4154    0.0000 H   0  0  0  0  0  0  0  0  0  0  0  0
    3.6100   -1.6454    0.0000 C   0  0  0  0  0  0  0  0  0  0  0  0
    3.6100   -2.4704    0.0000 H   0  0  0  0  0  0  0  0  0  0  0  0
    2.9425   -1.1605    0.0000 N   0  0  0  0  0  0  0  0  0  0  0  0
    2.1579   -1.4154    0.0000 C   0  0  0  0  0  0  0  0  0  0  0  0
    1.5448   -0.8634    0.0000 C   0  0  0  0  0  0  0  0  0  0  0  0
    0.7378   -1.0349    0.0000 C   0  0  0  0  0  0  0  0  0  0  0  0
    0.4023   -1.7886    0.0000 H   0  0  0  0  0  0  0  0  0  0  0  0
    0.3253   -0.3204    0.0000 C   0  0  0  0  0  0  0  0  0  0  0  0
   -0.4952   -0.2342    0.0000 H   0  0  0  0  0  0  0  0  0  0  0  0
    0.8774    0.2927    0.0000 O   0  0  0  0  0  0  0  0  0  0  0  0
    1.6310   -0.0429    0.0000 C   0  0  0  0  0  0  0  0  0  0  0  0
    2.3974   -0.3485    0.0000 H   0  0  0  0  0  0  0  0  0  0  0  0
    1.6424   -2.0595    0.0000 H   0  0  0  0  0  0  0  0  0  0  0  0
    2.3668   -2.2135    0.0000 H   0  0  0  0  0  0  0  0  0  0  0  0
    1.8875    0.2916    0.0000 C   0  0  0  0  0  0  0  0  0  0  0  0
    1.0744    0.4312    0.0000 H   0  0  0  0  0  0  0  0  0  0  0  0
    1.6326    1.0762    0.0000 N   0  0  0  0  0  0  0  0  0  0  0  0
    1.0745    1.6839    0.0000 H   0  0  0  0  0  0  0  0  0  0  0  0
    3.1236    2.4341    0.0000 H   0  0  0  0  0  0  0  0  0  0  0  0
    2.7534    3.0754    0.0000 H   0  0  0  0  0  0  0  0  0  0  0  0
    0.7620    2.7507    0.0000 H   0  0  0  0  0  0  0  0  0  0  0  0
    1.1322    2.1094    0.0000 H   0  0  0  0  0  0  0  0  0  0  0  0
    2.4092    3.6716    0.0000 H   0  0  0  0  0  0  0  0  0  0  0  0
    2.0389    4.3129    0.0000 H   0  0  0  0  0  0  0  0  0  0  0  0
    1.2836    4.7506    0.0000 H   0  0  0  0  0  0  0  0  0  0  0  0
    0.1566    4.4487    0.0000 H   0  0  0  0  0  0  0  0  0  0  0  0
    0.4586    3.3217    0.0000 H   0  0  0  0  0  0  0  0  0  0  0  0
  1  2  1  0  0  0  0
  2  3  1  0  0  0  0
  3  4  1  0  0  0  0
  4  5  1  0  0  0  0
  5  6  2  0  0  0  0
  6  7  1  0  0  0  0
  7  8  1  0  0  0  0
  8  9  2  0  0  0  0
  9 10  1  0  0  0  0
 10 11  1  0  0  0  0
 10 12  2  0  0  0  0
 12 13  1  0  0  0  0
 12 14  1  0  0  0  0
  8 14  1  0  0  0  0
 14 15  1  0  0  0  0
 15 16  1  0  0  0  0
 16 17  1  0  0  0  0
 17 18  1  0  0  0  0
 17 19  2  0  0  0  0
 19 20  1  0  0  0  0
 19 21  1  0  0  0  0
 21 22  1  0  0  0  0
 16 22  2  0  0  0  0
 22 23  1  0  0  0  0
 15 24  1  0  0  0  0
 15 25  1  0  0  0  0
  7 26  2  0  0  0  0
 26 27  1  0  0  0  0
 26 28  1  0  0  0  0
  5 28  1  0  0  0  0
 28 29  1  0  0  0  0
  4 30  1  0  0  0  0
  4 31  1  0  0  0  0
  3 32  1  0  0  0  0
  3 33  1  0  0  0  0
  2 34  1  0  0  0  0
  2 35  1  0  0  0  0
  1 36  1  0  0  0  0
  1 37  1  0  0  0  0
  1 38  1  0  0  0  0
M  END
> <Potency>
14.3421475927193

> <pIC50>
4.8433858125570906

> <Outcome>
Inactive

> <is_active>
0

$$$$

  Mrv1921 08232120312D          

 33 35  0  0  0  0            999 V2000
    0.0000   -2.4750    0.0000 O   0  0  0  0  0  0  0  0  0  0  0  0
    0.7145   -2.8875    0.0000 C   0  0  0  0  0  0  0  0  0  0  0  0
    0.7145   -3.7125    0.0000 C   0  0  0  0  0  0  0  0  0  0  0  0
    0.0000   -4.1250    0.0000 C   0  0  0  0  0  0  0  0  0  0  0  0
    0.0000   -4.9500    0.0000 C   0  0  0  0  0  0  0  0  0  0  0  0
    0.7145   -5.3625    0.0000 H   0  0  0  0  0  0  0  0  0  0  0  0
   -0.7145   -5.3625    0.0000 C   0  0  0  0  0  0  0  0  0  0  0  0
   -0.7145   -6.1875    0.0000 H   0  0  0  0  0  0  0  0  0  0  0  0
   -1.4289   -4.9500    0.0000 C   0  0  0  0  0  0  0  0  0  0  0  0
   -2.1434   -5.3625    0.0000 H   0  0  0  0  0  0  0  0  0  0  0  0
   -1.4289   -4.1250    0.0000 C   0  0  0  0  0  0  0  0  0  0  0  0
   -2.1434   -3.7125    0.0000 Cl  0  0  0  0  0  0  0  0  0  0  0  0
   -0.7145   -3.7125    0.0000 C   0  0  0  0  0  0  0  0  0  0  0  0
   -0.7145   -2.8875    0.0000 H   0  0  0  0  0  0  0  0  0  0  0  0
    1.1678   -4.4018    0.0000 H   0  0  0  0  0  0  0  0  0  0  0  0
    1.5381   -3.7605    0.0000 H   0  0  0  0  0  0  0  0  0  0  0  0
    1.4289   -2.4750    0.0000 N   0  0  0  0  0  0  0  0  0  0  0  0
    1.4289   -1.6500    0.0000 C   0  0  0  0  0  0  0  0  0  0  0  0
    0.7145   -1.2375    0.0000 N   0  0  0  0  0  0  0  0  0  0  0  0
    0.7145   -0.4125    0.0000 N   0  0  0  0  0  0  0  0  0  0  0  0
    1.4289    0.0000    0.0000 C   0  0  0  0  0  0  0  0  0  0  0  0
    1.4289    0.8250    0.0000 H   0  0  0  0  0  0  0  0  0  0  0  0
    2.1434   -0.4125    0.0000 C   0  0  0  0  0  0  0  0  0  0  0  0
    2.8579    0.0000    0.0000 C   0  0  0  0  0  0  0  0  0  0  0  0
    3.5724   -0.4125    0.0000 C   0  0  0  0  0  0  0  0  0  0  0  0
    3.5724   -1.2375    0.0000 C   0  0  0  0  0  0  0  0  0  0  0  0
    2.8579   -1.6500    0.0000 C   0  0  0  0  0  0  0  0  0  0  0  0
    2.8579   -2.4750    0.0000 H   0  0  0  0  0  0  0  0  0  0  0  0
    2.1434   -1.2375    0.0000 C   0  0  0  0  0  0  0  0  0  0  0  0
    4.2868   -1.6500    0.0000 H   0  0  0  0  0  0  0  0  0  0  0  0
    4.2868   -0.0000    0.0000 H   0  0  0  0  0  0  0  0  0  0  0  0
    2.8579    0.8250    0.0000 H   0  0  0  0  0  0  0  0  0  0  0  0
    2.1434   -2.8875    0.0000 H   0  0  0  0  0  0  0  0  0  0  0  0
  1  2  2  0  0  0  0
  2  3  1  0  0  0  0
  3  4  1  0  0  0  0
  4  5  2  0  0  0  0
  5  6  1  0  0  0  0
  5  7  1  0  0  0  0
  7  8  1  0  0  0  0
  7  9  2  0  0  0  0
  9 10  1  0  0  0  0
  9 11  1  0  0  0  0
 11 12  1  0  0  0  0
 11 13  2  0  0  0  0
  4 13  1  0  0  0  0
 13 14  1  0  0  0  0
  3 15  1  0  0  0  0
  3 16  1  0  0  0  0
  2 17  1  0  0  0  0
 17 18  1  0  0  0  0
 18 19  2  0  0  0  0
 19 20  1  0  0  0  0
 20 21  2  0  0  0  0
 21 22  1  0  0  0  0
 21 23  1  0  0  0  0
 23 24  2  0  0  0  0
 24 25  1  0  0  0  0
 25 26  2  0  0  0  0
 26 27  1  0  0  0  0
 27 28  1  0  0  0  0
 27 29  2  0  0  0  0
 18 29  1  0  0  0  0
 23 29  1  0  0  0  0
 26 30  1  0  0  0  0
 25 31  1  0  0  0  0
 24 32  1  0  0  0  0
 17 33  1  0  0  0  0
M  END
> <Potency>
21.6513749569535

> <pIC50>
4.664514518836851

> <Outcome>
Inactive

> <is_active>
0

$$$$

  Mrv1921 08232120312D          

 38 40  0  0  0  0            999 V2000
    3.5724   -0.4125    0.0000 O   0  0  0  0  0  0  0  0  0  0  0  0
    4.2868    0.0000    0.0000 C   0  0  0  0  0  0  0  0  0  0  0  0
    5.0013   -0.4125    0.0000 C   0  0  0  0  0  0  0  0  0  0  0  0
    5.0013   -1.2375    0.0000 C   0  0  0  0  0  0  0  0  0  0  0  0
    5.7158   -1.6500    0.0000 C   0  0  0  0  0  0  0  0  0  0  0  0
    6.4302   -1.2375    0.0000 H   0  0  0  0  0  0  0  0  0  0  0  0
    5.7158   -2.4750    0.0000 C   0  0  0  0  0  0  0  0  0  0  0  0
    6.4302   -2.8875    0.0000 H   0  0  0  0  0  0  0  0  0  0  0  0
    5.0013   -2.8875    0.0000 C   0  0  0  0  0  0  0  0  0  0  0  0
    5.0013   -3.7125    0.0000 H   0  0  0  0  0  0  0  0  0  0  0  0
    4.2868   -2.4750    0.0000 C   0  0  0  0  0  0  0  0  0  0  0  0
    3.5724   -2.8875    0.0000 Cl  0  0  0  0  0  0  0  0  0  0  0  0
    4.2868   -1.6500    0.0000 C   0  0  0  0  0  0  0  0  0  0  0  0
    3.5724   -1.2375    0.0000 H   0  0  0  0  0  0  0  0  0  0  0  0
    5.8249   -0.3645    0.0000 H   0  0  0  0  0  0  0  0  0  0  0  0
    5.4546    0.2768    0.0000 H   0  0  0  0  0  0  0  0  0  0  0  0
    4.2868    0.8250    0.0000 N   0  0  0  0  0  0  0  0  0  0  0  0
    3.5724    1.2375    0.0000 C   0  0  0  0  0  0  0  0  0  0  0  0
    2.8579    0.8250    0.0000 C   0  0  0  0  0  0  0  0  0  0  0  0
    2.8579    0.0000    0.0000 H   0  0  0  0  0  0  0  0  0  0  0  0
    2.1434    1.2375    0.0000 N   0  0  0  0  0  0  0  0  0  0  0  0
    2.1434    2.0625    0.0000 C   0  0  0  0  0  0  0  0  0  0  0  0
    1.4289    2.4750    0.0000 H   0  0  0  0  0  0  0  0  0  0  0  0
    2.8579    2.4750    0.0000 C   0  0  0  0  0  0  0  0  0  0  0  0
    2.8579    3.3000    0.0000 H   0  0  0  0  0  0  0  0  0  0  0  0
    3.5724    2.0625    0.0000 C   0  0  0  0  0  0  0  0  0  0  0  0
    4.2868    2.4750    0.0000 C   0  0  0  0  0  0  0  0  0  0  0  0
    4.2868    3.3000    0.0000 C   0  0  0  0  0  0  0  0  0  0  0  0
    3.5724    3.7125    0.0000 H   0  0  0  0  0  0  0  0  0  0  0  0
    5.0013    3.7125    0.0000 C   0  0  0  0  0  0  0  0  0  0  0  0
    5.0013    4.5375    0.0000 H   0  0  0  0  0  0  0  0  0  0  0  0
    5.7158    3.3000    0.0000 C   0  0  0  0  0  0  0  0  0  0  0  0
    6.4302    3.7125    0.0000 H   0  0  0  0  0  0  0  0  0  0  0  0
    5.7158    2.4750    0.0000 C   0  0  0  0  0  0  0  0  0  0  0  0
    6.4302    2.0625    0.0000 H   0  0  0  0  0  0  0  0  0  0  0  0
    5.0013    2.0625    0.0000 C   0  0  0  0  0  0  0  0  0  0  0  0
    4.2868    1.6500    0.0000 H   0  0  0  0  0  0  0  0  0  0  0  0
    5.0013    1.2375    0.0000 H   0  0  0  0  0  0  0  0  0  0  0  0
  1  2  2  0  0  0  0
  2  3  1  0  0  0  0
  3  4  1  0  0  0  0
  4  5  2  0  0  0  0
  5  6  1  0  0  0  0
  5  7  1  0  0  0  0
  7  8  1  0  0  0  0
  7  9  2  0  0  0  0
  9 10  1  0  0  0  0
  9 11  1  0  0  0  0
 11 12  1  0  0  0  0
 11 13  2  0  0  0  0
  4 13  1  0  0  0  0
 13 14  1  0  0  0  0
  3 15  1  0  0  0  0
  3 16  1  0  0  0  0
  2 17  1  0  0  0  0
 17 18  1  0  0  0  0
 18 19  2  0  0  0  0
 19 20  1  0  0  0  0
 19 21  1  0  0  0  0
 21 22  2  0  0  0  0
 22 23  1  0  0  0  0
 22 24  1  0  0  0  0
 24 25  1  0  0  0  0
 24 26  2  0  0  0  0
 18 26  1  0  0  0  0
 26 27  1  0  0  0  0
 27 28  2  0  0  0  0
 28 29  1  0  0  0  0
 28 30  1  0  0  0  0
 30 31  1  0  0  0  0
 30 32  2  0  0  0  0
 32 33  1  0  0  0  0
 32 34  1  0  0  0  0
 34 35  1  0  0  0  0
 34 36  2  0  0  0  0
 27 36  1  0  0  0  0
 36 37  1  0  0  0  0
 17 38  1  0  0  0  0
M  END
> <Potency>
40.8917363574677

> <pIC50>
4.388364447908456

> <Outcome>
Inactive

> <is_active>
0

$$$$

  Mrv1921 08232120312D          

 49 52  0  0  0  0            999 V2000
    1.4289   -4.9500    0.0000 C   0  0  0  0  0  0  0  0  0  0  0  0
    0.7145   -5.3625    0.0000 C   0  0  0  0  0  0  0  0  0  0  0  0
    0.7145   -6.1875    0.0000 C   0  0  0  0  0  0  0  0  0  0  0  0
    1.1270   -6.9020    0.0000 H   0  0  0  0  0  0  0  0  0  0  0  0
    0.0000   -6.6000    0.0000 C   0  0  0  0  0  0  0  0  0  0  0  0
    0.0000   -7.4250    0.0000 H   0  0  0  0  0  0  0  0  0  0  0  0
   -0.7145   -6.1875    0.0000 N   0  0  0  0  0  0  0  0  0  0  0  0
   -0.7145   -5.3625    0.0000 C   0  0  0  0  0  0  0  0  0  0  0  0
   -1.4289   -4.9500    0.0000 H   0  0  0  0  0  0  0  0  0  0  0  0
    0.0000   -4.9500    0.0000 C   0  0  0  0  0  0  0  0  0  0  0  0
    0.0000   -4.1250    0.0000 N   0  0  0  0  0  0  0  0  0  0  0  0
    0.7145   -3.7125    0.0000 C   0  0  0  0  0  0  0  0  0  0  0  0
    1.4289   -4.1250    0.0000 O   0  0  0  0  0  0  0  0  0  0  0  0
    0.7145   -2.8875    0.0000 C   0  0  0  0  0  0  0  0  0  0  0  0
    1.4289   -2.4750    0.0000 C   0  0  0  0  0  0  0  0  0  0  0  0
    2.1434   -2.8875    0.0000 O   0  0  0  0  0  0  0  0  0  0  0  0
    1.4289   -1.6500    0.0000 C   0  0  0  0  0  0  0  0  0  0  0  0
    0.7145   -1.2375    0.0000 C   0  0  0  0  0  0  0  0  0  0  0  0
    0.7145   -2.0625    0.0000 H   0  0  0  0  0  0  0  0  0  0  0  0
    0.7145   -0.4125    0.0000 C   0  0  0  0  0  0  0  0  0  0  0  0
    0.0000    0.0000    0.0000 O   0  0  0  0  0  0  0  0  0  0  0  0
    1.4289    0.0000    0.0000 N   0  0  0  0  0  0  0  0  0  0  0  0
    1.4289    0.8250    0.0000 H   0  0  0  0  0  0  0  0  0  0  0  0
    2.1434   -0.4125    0.0000 C   0  0  0  0  0  0  0  0  0  0  0  0
    2.8579    0.0000    0.0000 C   0  0  0  0  0  0  0  0  0  0  0  0
    3.5724   -0.4125    0.0000 C   0  0  0  0  0  0  0  0  0  0  0  0
    3.5724   -1.2375    0.0000 C   0  0  0  0  0  0  0  0  0  0  0  0
    2.8579   -1.6500    0.0000 C   0  0  0  0  0  0  0  0  0  0  0  0
    2.8579   -2.4750    0.0000 H   0  0  0  0  0  0  0  0  0  0  0  0
    2.1434   -1.2375    0.0000 C   0  0  0  0  0  0  0  0  0  0  0  0
    4.2868   -1.6500    0.0000 H   0  0  0  0  0  0  0  0  0  0  0  0
    4.2868   -0.0000    0.0000 H   0  0  0  0  0  0  0  0  0  0  0  0
    2.8579    0.8250    0.0000 H   0  0  0  0  0  0  0  0  0  0  0  0
    0.0000   -2.4750    0.0000 C   0  0  0  0  0  0  0  0  0  0  0  0
   -0.7145   -2.8875    0.0000 C   0  0  0  0  0  0  0  0  0  0  0  0
    0.0000   -3.3000    0.0000 H   0  0  0  0  0  0  0  0  0  0  0  0
   -1.4289   -2.4750    0.0000 C   0  0  0  0  0  0  0  0  0  0  0  0
   -2.1434   -2.8875    0.0000 H   0  0  0  0  0  0  0  0  0  0  0  0
   -1.4289   -1.6500    0.0000 C   0  0  0  0  0  0  0  0  0  0  0  0
   -2.1434   -1.2375    0.0000 H   0  0  0  0  0  0  0  0  0  0  0  0
   -0.7145   -1.2375    0.0000 C   0  0  0  0  0  0  0  0  0  0  0  0
   -0.7145   -0.4125    0.0000 Cl  0  0  0  0  0  0  0  0  0  0  0  0
    0.0000   -1.6500    0.0000 C   0  0  0  0  0  0  0  0  0  0  0  0
   -0.7145   -2.0625    0.0000 H   0  0  0  0  0  0  0  0  0  0  0  0
    1.4289   -3.3000    0.0000 H   0  0  0  0  0  0  0  0  0  0  0  0
   -0.7145   -3.7125    0.0000 H   0  0  0  0  0  0  0  0  0  0  0  0
    1.4289   -5.7750    0.0000 H   0  0  0  0  0  0  0  0  0  0  0  0
    2.1434   -5.3625    0.0000 H   0  0  0  0  0  0  0  0  0  0  0  0
    2.1434   -4.5375    0.0000 H   0  0  0  0  0  0  0  0  0  0  0  0
  1  2  1  0  0  0  0
  2  3  2  0  0  0  0
  3  4  1  0  0  0  0
  3  5  1  0  0  0  0
  5  6  1  0  0  0  0
  5  7  2  0  0  0  0
  7  8  1  0  0  0  0
  8  9  1  0  0  0  0
  8 10  2  0  0  0  0
  2 10  1  0  0  0  0
 10 11  1  0  0  0  0
 11 12  1  0  0  0  0
 12 13  2  0  0  0  0
 12 14  1  0  0  0  0
 14 15  1  0  0  0  0
 15 16  2  0  0  0  0
 15 17  1  0  0  0  0
 17 18  4  0  0  0  0
 18 19  1  0  0  0  0
 18 20  4  0  0  0  0
 20 21  2  0  0  0  0
 20 22  4  0  0  0  0
 22 23  1  0  0  0  0
 22 24  4  0  0  0  0
 24 25  4  0  0  0  0
 25 26  4  0  0  0  0
 26 27  4  0  0  0  0
 27 28  4  0  0  0  0
 28 29  1  0  0  0  0
 28 30  4  0  0  0  0
 17 30  4  0  0  0  0
 24 30  4  0  0  0  0
 27 31  1  0  0  0  0
 26 32  1  0  0  0  0
 25 33  1  0  0  0  0
 14 34  1  0  0  0  0
 34 35  2  0  0  0  0
 35 36  1  0  0  0  0
 35 37  1  0  0  0  0
 37 38  1  0  0  0  0
 37 39  2  0  0  0  0
 39 40  1  0  0  0  0
 39 41  1  0  0  0  0
 41 42  1  0  0  0  0
 41 43  2  0  0  0  0
 34 43  1  0  0  0  0
 43 44  1  0  0  0  0
 14 45  1  0  0  0  0
 11 46  1  0  0  0  0
  1 47  1  0  0  0  0
  1 48  1  0  0  0  0
  1 49  1  0  0  0  0
M  END
> <Potency>
15.7999881042112

> <pIC50>
4.801343240025158

> <Outcome>
Inactive

> <is_active>
0

$$$$

  Mrv1921 08232120312D          

 52 55  0  0  0  0            999 V2000
   -1.4289   -6.6000    0.0000 C   0  0  0  0  0  0  0  0  0  0  0  0
   -0.7145   -6.1875    0.0000 N   0  0  0  0  0  0  0  0  0  0  0  0
    0.0000   -6.6000    0.0000 C   0  0  0  0  0  0  0  0  0  0  0  0
   -0.4125   -7.3145    0.0000 H   0  0  0  0  0  0  0  0  0  0  0  0
    0.7145   -7.0125    0.0000 H   0  0  0  0  0  0  0  0  0  0  0  0
    0.4125   -5.8855    0.0000 H   0  0  0  0  0  0  0  0  0  0  0  0
   -0.7145   -5.3625    0.0000 C   0  0  0  0  0  0  0  0  0  0  0  0
   -1.4289   -4.9500    0.0000 C   0  0  0  0  0  0  0  0  0  0  0  0
   -2.1434   -5.3625    0.0000 H   0  0  0  0  0  0  0  0  0  0  0  0
   -1.4289   -4.1250    0.0000 N   0  0  0  0  0  0  0  0  0  0  0  0
   -0.7145   -3.7125    0.0000 C   0  0  0  0  0  0  0  0  0  0  0  0
    0.0000   -3.3000    0.0000 H   0  0  0  0  0  0  0  0  0  0  0  0
    0.0000   -4.1250    0.0000 C   0  0  0  0  0  0  0  0  0  0  0  0
    0.7145   -3.7125    0.0000 C   0  0  0  0  0  0  0  0  0  0  0  0
    0.7145   -2.8875    0.0000 N   0  0  0  0  0  0  0  0  0  0  0  0
    1.4289   -2.4750    0.0000 C   0  0  0  0  0  0  0  0  0  0  0  0
    2.1434   -2.8875    0.0000 O   0  0  0  0  0  0  0  0  0  0  0  0
    1.4289   -1.6500    0.0000 C   0  0  0  0  0  0  0  0  0  0  0  0
    0.7145   -1.2375    0.0000 C   0  0  0  0  0  0  0  0  0  0  0  0
    0.7145   -2.0625    0.0000 H   0  0  0  0  0  0  0  0  0  0  0  0
    0.7145   -0.4125    0.0000 C   0  0  0  0  0  0  0  0  0  0  0  0
    0.0000    0.0000    0.0000 O   0  0  0  0  0  0  0  0  0  0  0  0
    1.4289    0.0000    0.0000 N   0  0  0  0  0  0  0  0  0  0  0  0
    1.4289    0.8250    0.0000 H   0  0  0  0  0  0  0  0  0  0  0  0
    2.1434   -0.4125    0.0000 C   0  0  0  0  0  0  0  0  0  0  0  0
    2.8579    0.0000    0.0000 C   0  0  0  0  0  0  0  0  0  0  0  0
    3.5724   -0.4125    0.0000 C   0  0  0  0  0  0  0  0  0  0  0  0
    3.5724   -1.2375    0.0000 C   0  0  0  0  0  0  0  0  0  0  0  0
    2.8579   -1.6500    0.0000 C   0  0  0  0  0  0  0  0  0  0  0  0
    2.8579   -2.4750    0.0000 H   0  0  0  0  0  0  0  0  0  0  0  0
    2.1434   -1.2375    0.0000 C   0  0  0  0  0  0  0  0  0  0  0  0
    4.2868   -1.6500    0.0000 H   0  0  0  0  0  0  0  0  0  0  0  0
    4.2868   -0.0000    0.0000 H   0  0  0  0  0  0  0  0  0  0  0  0
    2.8579    0.8250    0.0000 H   0  0  0  0  0  0  0  0  0  0  0  0
    0.0000   -2.4750    0.0000 C   0  0  0  0  0  0  0  0  0  0  0  0
   -0.7145   -2.8875    0.0000 C   0  0  0  0  0  0  0  0  0  0  0  0
   -1.4289   -3.3000    0.0000 H   0  0  0  0  0  0  0  0  0  0  0  0
   -1.4289   -2.4750    0.0000 C   0  0  0  0  0  0  0  0  0  0  0  0
   -2.2539   -2.4750    0.0000 H   0  0  0  0  0  0  0  0  0  0  0  0
   -1.4289   -1.6500    0.0000 C   0  0  0  0  0  0  0  0  0  0  0  0
   -2.1434   -1.2375    0.0000 H   0  0  0  0  0  0  0  0  0  0  0  0
   -0.7145   -1.2375    0.0000 C   0  0  0  0  0  0  0  0  0  0  0  0
   -0.7145   -0.4125    0.0000 Cl  0  0  0  0  0  0  0  0  0  0  0  0
    0.0000   -1.6500    0.0000 C   0  0  0  0  0  0  0  0  0  0  0  0
   -0.7145   -2.0625    0.0000 H   0  0  0  0  0  0  0  0  0  0  0  0
    1.1678   -4.4018    0.0000 H   0  0  0  0  0  0  0  0  0  0  0  0
    1.5381   -3.7605    0.0000 H   0  0  0  0  0  0  0  0  0  0  0  0
    0.0000   -4.9500    0.0000 C   0  0  0  0  0  0  0  0  0  0  0  0
    0.7145   -5.3625    0.0000 H   0  0  0  0  0  0  0  0  0  0  0  0
   -1.8414   -5.8855    0.0000 H   0  0  0  0  0  0  0  0  0  0  0  0
   -2.1434   -7.0125    0.0000 H   0  0  0  0  0  0  0  0  0  0  0  0
   -1.0164   -7.3145    0.0000 H   0  0  0  0  0  0  0  0  0  0  0  0
  1  2  1  0  0  0  0
  2  3  1  0  0  0  0
  3  4  1  0  0  0  0
  3  5  1  0  0  0  0
  3  6  1  0  0  0  0
  2  7  1  0  0  0  0
  7  8  2  0  0  0  0
  8  9  1  0  0  0  0
  8 10  1  0  0  0  0
 10 11  2  0  0  0  0
 11 12  1  0  0  0  0
 11 13  1  0  0  0  0
 13 14  1  0  0  0  0
 14 15  1  0  0  0  0
 15 16  1  0  0  0  0
 16 17  2  0  0  0  0
 16 18  1  0  0  0  0
 18 19  4  0  0  0  0
 19 20  1  0  0  0  0
 19 21  4  0  0  0  0
 21 22  2  0  0  0  0
 21 23  4  0  0  0  0
 23 24  1  0  0  0  0
 23 25  4  0  0  0  0
 25 26  4  0  0  0  0
 26 27  4  0  0  0  0
 27 28  4  0  0  0  0
 28 29  4  0  0  0  0
 29 30  1  0  0  0  0
 29 31  4  0  0  0  0
 18 31  4  0  0  0  0
 25 31  4  0  0  0  0
 28 32  1  0  0  0  0
 27 33  1  0  0  0  0
 26 34  1  0  0  0  0
 15 35  1  0  0  0  0
 35 36  2  0  0  0  0
 36 37  1  0  0  0  0
 36 38  1  0  0  0  0
 38 39  1  0  0  0  0
 38 40  2  0  0  0  0
 40 41  1  0  0  0  0
 40 42  1  0  0  0  0
 42 43  1  0  0  0  0
 42 44  2  0  0  0  0
 35 44  1  0  0  0  0
 44 45  1  0  0  0  0
 14 46  1  0  0  0  0
 14 47  1  0  0  0  0
 13 48  2  0  0  0  0
  7 48  1  0  0  0  0
 48 49  1  0  0  0  0
  1 50  1  0  0  0  0
  1 51  1  0  0  0  0
  1 52  1  0  0  0  0
M  END
> <Potency>
57.7127722621655

> <pIC50>
4.238728063635479

> <Outcome>
Inactive

> <is_active>
0

$$$$

  Mrv1921 08232120312D          

 41 44  0  0  0  0            999 V2000
   -5.0571   -5.6041    0.0000 O   0  0  0  0  0  0  0  0  0  0  0  0
   -4.2502   -5.4326    0.0000 C   0  0  0  0  0  0  0  0  0  0  0  0
   -3.8008   -4.7406    0.0000 C   0  0  0  0  0  0  0  0  0  0  0  0
   -3.5459   -3.9560    0.0000 H   0  0  0  0  0  0  0  0  0  0  0  0
   -4.3529   -4.1276    0.0000 H   0  0  0  0  0  0  0  0  0  0  0  0
   -3.1089   -5.1900    0.0000 C   0  0  0  0  0  0  0  0  0  0  0  0
   -2.3020   -5.0184    0.0000 O   0  0  0  0  0  0  0  0  0  0  0  0
   -2.0470   -4.2338    0.0000 C   0  0  0  0  0  0  0  0  0  0  0  0
   -2.5990   -3.6207    0.0000 C   0  0  0  0  0  0  0  0  0  0  0  0
   -3.4060   -3.7923    0.0000 H   0  0  0  0  0  0  0  0  0  0  0  0
   -2.3441   -2.8361    0.0000 C   0  0  0  0  0  0  0  0  0  0  0  0
   -2.8961   -2.2230    0.0000 Cl  0  0  0  0  0  0  0  0  0  0  0  0
   -1.5371   -2.6646    0.0000 C   0  0  0  0  0  0  0  0  0  0  0  0
   -1.2822   -1.8800    0.0000 H   0  0  0  0  0  0  0  0  0  0  0  0
   -0.9851   -3.2777    0.0000 C   0  0  0  0  0  0  0  0  0  0  0  0
   -0.1781   -3.1062    0.0000 C   0  0  0  0  0  0  0  0  0  0  0  0
    0.0768   -2.3215    0.0000 C   0  0  0  0  0  0  0  0  0  0  0  0
   -0.4752   -1.7084    0.0000 O   0  0  0  0  0  0  0  0  0  0  0  0
    0.8838   -2.1500    0.0000 N   0  0  0  0  0  0  0  0  0  0  0  0
    1.1387   -1.3654    0.0000 N   0  0  0  0  0  0  0  0  0  0  0  0
    0.6538   -0.6979    0.0000 C   0  0  0  0  0  0  0  0  0  0  0  0
   -0.1712   -0.6979    0.0000 H   0  0  0  0  0  0  0  0  0  0  0  0
    1.1387   -0.0305    0.0000 N   0  0  0  0  0  0  0  0  0  0  0  0
    1.9233   -0.2854    0.0000 C   0  0  0  0  0  0  0  0  0  0  0  0
    2.6378    0.1271    0.0000 C   0  0  0  0  0  0  0  0  0  0  0  0
    3.3523   -0.2854    0.0000 C   0  0  0  0  0  0  0  0  0  0  0  0
    3.3523   -1.1104    0.0000 C   0  0  0  0  0  0  0  0  0  0  0  0
    2.6378   -1.5229    0.0000 C   0  0  0  0  0  0  0  0  0  0  0  0
    2.6378   -2.3479    0.0000 H   0  0  0  0  0  0  0  0  0  0  0  0
    1.9233   -1.1104    0.0000 C   0  0  0  0  0  0  0  0  0  0  0  0
    4.0668   -1.5229    0.0000 H   0  0  0  0  0  0  0  0  0  0  0  0
    4.0668    0.1271    0.0000 H   0  0  0  0  0  0  0  0  0  0  0  0
    2.6378    0.9521    0.0000 H   0  0  0  0  0  0  0  0  0  0  0  0
    1.4358   -2.7631    0.0000 H   0  0  0  0  0  0  0  0  0  0  0  0
    0.0400   -3.9018    0.0000 H   0  0  0  0  0  0  0  0  0  0  0  0
    0.5903   -3.4063    0.0000 H   0  0  0  0  0  0  0  0  0  0  0  0
   -1.2400   -4.0623    0.0000 C   0  0  0  0  0  0  0  0  0  0  0  0
   -0.6880   -4.6754    0.0000 H   0  0  0  0  0  0  0  0  0  0  0  0
   -2.6416   -5.8699    0.0000 H   0  0  0  0  0  0  0  0  0  0  0  0
   -3.5582   -5.8819    0.0000 N   0  0  0  0  0  0  0  0  0  0  0  0
   -3.7874   -6.6744    0.0000 H   0  0  0  0  0  0  0  0  0  0  0  0
  1  2  2  0  0  0  0
  2  3  1  0  0  0  0
  3  4  1  0  0  0  0
  3  5  1  0  0  0  0
  3  6  1  0  0  0  0
  6  7  1  0  0  0  0
  7  8  1  0  0  0  0
  8  9  2  0  0  0  0
  9 10  1  0  0  0  0
  9 11  1  0  0  0  0
 11 12  1  0  0  0  0
 11 13  2  0  0  0  0
 13 14  1  0  0  0  0
 13 15  1  0  0  0  0
 15 16  1  0  0  0  0
 16 17  1  0  0  0  0
 17 18  2  0  0  0  0
 17 19  1  0  0  0  0
 19 20  1  0  0  0  0
 20 21  1  0  0  0  0
 21 22  1  0  0  0  0
 21 23  2  0  0  0  0
 23 24  1  0  0  0  0
 24 25  2  0  0  0  0
 25 26  1  0  0  0  0
 26 27  2  0  0  0  0
 27 28  1  0  0  0  0
 28 29  1  0  0  0  0
 28 30  2  0  0  0  0
 20 30  1  0  0  0  0
 24 30  1  0  0  0  0
 27 31  1  0  0  0  0
 26 32  1  0  0  0  0
 25 33  1  0  0  0  0
 19 34  1  0  0  0  0
 16 35  1  0  0  0  0
 16 36  1  0  0  0  0
 15 37  2  0  0  0  0
  8 37  1  0  0  0  0
 37 38  1  0  0  0  0
  6 39  1  0  0  0  0
  6 40  1  0  0  0  0
  2 40  1  0  0  0  0
 40 41  1  0  0  0  0
M  END
> <Potency>
82.1185141893301

> <pIC50>
4.0855589171340405

> <Outcome>
Inactive

> <is_active>
0

$$$$

  Mrv1921 08232120312D          

 35 36  0  0  0  0            999 V2000
    3.5724   -1.2375    0.0000 C   0  0  0  0  0  0  0  0  0  0  0  0
    2.8579   -1.6500    0.0000 O   0  0  0  0  0  0  0  0  0  0  0  0
    2.8579   -2.4750    0.0000 C   0  0  0  0  0  0  0  0  0  0  0  0
    3.5724   -2.8875    0.0000 C   0  0  0  0  0  0  0  0  0  0  0  0
    4.2868   -2.4750    0.0000 H   0  0  0  0  0  0  0  0  0  0  0  0
    3.5724   -3.7125    0.0000 C   0  0  0  0  0  0  0  0  0  0  0  0
    4.2868   -4.1250    0.0000 Cl  0  0  0  0  0  0  0  0  0  0  0  0
    2.8579   -4.1250    0.0000 C   0  0  0  0  0  0  0  0  0  0  0  0
    2.8579   -4.9500    0.0000 H   0  0  0  0  0  0  0  0  0  0  0  0
    2.1434   -3.7125    0.0000 C   0  0  0  0  0  0  0  0  0  0  0  0
    1.4289   -4.1250    0.0000 C   0  0  0  0  0  0  0  0  0  0  0  0
    0.7145   -3.7125    0.0000 C   0  0  0  0  0  0  0  0  0  0  0  0
    0.7145   -2.8875    0.0000 O   0  0  0  0  0  0  0  0  0  0  0  0
    0.0000   -4.1250    0.0000 N   0  0  0  0  0  0  0  0  0  0  0  0
   -0.7145   -3.7125    0.0000 C   0  0  0  0  0  0  0  0  0  0  0  0
   -1.4289   -4.1250    0.0000 C   0  0  0  0  0  0  0  0  0  0  0  0
   -1.4289   -4.9500    0.0000 H   0  0  0  0  0  0  0  0  0  0  0  0
   -2.1434   -3.7125    0.0000 N   0  0  0  0  0  0  0  0  0  0  0  0
   -2.1434   -2.8875    0.0000 C   0  0  0  0  0  0  0  0  0  0  0  0
   -2.8579   -2.4750    0.0000 H   0  0  0  0  0  0  0  0  0  0  0  0
   -1.4289   -2.4750    0.0000 C   0  0  0  0  0  0  0  0  0  0  0  0
   -1.4289   -1.6500    0.0000 H   0  0  0  0  0  0  0  0  0  0  0  0
   -0.7145   -2.8875    0.0000 C   0  0  0  0  0  0  0  0  0  0  0  0
    0.0000   -2.4750    0.0000 C   0  0  0  0  0  0  0  0  0  0  0  0
    0.7145   -2.0625    0.0000 H   0  0  0  0  0  0  0  0  0  0  0  0
    0.0000   -1.6500    0.0000 H   0  0  0  0  0  0  0  0  0  0  0  0
   -0.7145   -2.0625    0.0000 H   0  0  0  0  0  0  0  0  0  0  0  0
    0.0000   -4.9500    0.0000 H   0  0  0  0  0  0  0  0  0  0  0  0
    1.0587   -4.8622    0.0000 H   0  0  0  0  0  0  0  0  0  0  0  0
    1.7992   -4.8622    0.0000 H   0  0  0  0  0  0  0  0  0  0  0  0
    2.1434   -2.8875    0.0000 C   0  0  0  0  0  0  0  0  0  0  0  0
    1.4289   -2.4750    0.0000 H   0  0  0  0  0  0  0  0  0  0  0  0
    3.9849   -1.9520    0.0000 H   0  0  0  0  0  0  0  0  0  0  0  0
    4.2868   -0.8250    0.0000 H   0  0  0  0  0  0  0  0  0  0  0  0
    3.1599   -0.5230    0.0000 H   0  0  0  0  0  0  0  0  0  0  0  0
  1  2  1  0  0  0  0
  2  3  1  0  0  0  0
  3  4  2  0  0  0  0
  4  5  1  0  0  0  0
  4  6  1  0  0  0  0
  6  7  1  0  0  0  0
  6  8  2  0  0  0  0
  8  9  1  0  0  0  0
  8 10  1  0  0  0  0
 10 11  1  0  0  0  0
 11 12  1  0  0  0  0
 12 13  2  0  0  0  0
 12 14  1  0  0  0  0
 14 15  1  0  0  0  0
 15 16  2  0  0  0  0
 16 17  1  0  0  0  0
 16 18  1  0  0  0  0
 18 19  2  0  0  0  0
 19 20  1  0  0  0  0
 19 21  1  0  0  0  0
 21 22  1  0  0  0  0
 21 23  2  0  0  0  0
 15 23  1  0  0  0  0
 23 24  1  0  0  0  0
 24 25  1  0  0  0  0
 24 26  1  0  0  0  0
 24 27  1  0  0  0  0
 14 28  1  0  0  0  0
 11 29  1  0  0  0  0
 11 30  1  0  0  0  0
 10 31  2  0  0  0  0
  3 31  1  0  0  0  0
 31 32  1  0  0  0  0
  1 33  1  0  0  0  0
  1 34  1  0  0  0  0
  1 35  1  0  0  0  0
M  END
> <Potency>
36.7822826346147

> <pIC50>
4.43436132281799

> <Outcome>
Inactive

> <is_active>
0

$$$$

  Mrv1921 08232120312D          

 39 41  0  0  0  0            999 V2000
   -0.9237    6.6500    0.0000 C   0  0  0  0  0  0  0  0  0  0  0  0
   -0.2093    7.0625    0.0000 C   0  0  0  0  0  0  0  0  0  0  0  0
   -0.2093    7.8875    0.0000 C   0  0  0  0  0  0  0  0  0  0  0  0
   -0.9237    8.3000    0.0000 H   0  0  0  0  0  0  0  0  0  0  0  0
    0.5052    8.3000    0.0000 C   0  0  0  0  0  0  0  0  0  0  0  0
    0.5052    9.1250    0.0000 H   0  0  0  0  0  0  0  0  0  0  0  0
    1.2197    7.8875    0.0000 N   0  0  0  0  0  0  0  0  0  0  0  0
    1.2197    7.0625    0.0000 C   0  0  0  0  0  0  0  0  0  0  0  0
    1.9341    6.6500    0.0000 H   0  0  0  0  0  0  0  0  0  0  0  0
    0.5052    6.6500    0.0000 C   0  0  0  0  0  0  0  0  0  0  0  0
    0.5052    5.8250    0.0000 N   0  0  0  0  0  0  0  0  0  0  0  0
    1.2197    5.4125    0.0000 C   0  0  0  0  0  0  0  0  0  0  0  0
    1.9341    5.8250    0.0000 O   0  0  0  0  0  0  0  0  0  0  0  0
    1.2197    4.5875    0.0000 C   0  0  0  0  0  0  0  0  0  0  0  0
    1.9341    4.1750    0.0000 C   0  0  0  0  0  0  0  0  0  0  0  0
    2.6486    4.5875    0.0000 C   0  0  0  0  0  0  0  0  0  0  0  0
    2.6486    5.4125    0.0000 H   0  0  0  0  0  0  0  0  0  0  0  0
    3.3631    4.1750    0.0000 C   0  0  0  0  0  0  0  0  0  0  0  0
    4.0776    4.5875    0.0000 Cl  0  0  0  0  0  0  0  0  0  0  0  0
    3.3631    3.3500    0.0000 C   0  0  0  0  0  0  0  0  0  0  0  0
    4.0776    2.9375    0.0000 H   0  0  0  0  0  0  0  0  0  0  0  0
    2.6486    2.9375    0.0000 C   0  0  0  0  0  0  0  0  0  0  0  0
    2.6486    2.1125    0.0000 C   0  0  0  0  0  0  0  0  0  0  0  0
    3.2320    1.5292    0.0000 C   0  0  0  0  0  0  0  0  0  0  0  0
    3.9465    1.1167    0.0000 H   0  0  0  0  0  0  0  0  0  0  0  0
    3.9465    1.9417    0.0000 H   0  0  0  0  0  0  0  0  0  0  0  0
    2.6486    0.9458    0.0000 O   0  0  0  0  0  0  0  0  0  0  0  0
    2.0653    1.5292    0.0000 C   0  0  0  0  0  0  0  0  0  0  0  0
    1.2427    1.4662    0.0000 H   0  0  0  0  0  0  0  0  0  0  0  0
    1.5559    0.8802    0.0000 H   0  0  0  0  0  0  0  0  0  0  0  0
    1.8864    2.4283    0.0000 H   0  0  0  0  0  0  0  0  0  0  0  0
    1.9341    3.3500    0.0000 C   0  0  0  0  0  0  0  0  0  0  0  0
    1.1094    3.3714    0.0000 H   0  0  0  0  0  0  0  0  0  0  0  0
    0.3961    4.5396    0.0000 H   0  0  0  0  0  0  0  0  0  0  0  0
    0.7663    3.8983    0.0000 H   0  0  0  0  0  0  0  0  0  0  0  0
   -0.2093    5.4125    0.0000 H   0  0  0  0  0  0  0  0  0  0  0  0
   -1.3362    7.3645    0.0000 H   0  0  0  0  0  0  0  0  0  0  0  0
   -1.6382    6.2375    0.0000 H   0  0  0  0  0  0  0  0  0  0  0  0
   -0.5112    5.9356    0.0000 H   0  0  0  0  0  0  0  0  0  0  0  0
  1  2  1  0  0  0  0
  2  3  2  0  0  0  0
  3  4  1  0  0  0  0
  3  5  1  0  0  0  0
  5  6  1  0  0  0  0
  5  7  2  0  0  0  0
  7  8  1  0  0  0  0
  8  9  1  0  0  0  0
  8 10  2  0  0  0  0
  2 10  1  0  0  0  0
 10 11  1  0  0  0  0
 11 12  1  0  0  0  0
 12 13  2  0  0  0  0
 12 14  1  0  0  0  0
 14 15  1  0  0  0  0
 15 16  2  0  0  0  0
 16 17  1  0  0  0  0
 16 18  1  0  0  0  0
 18 19  1  0  0  0  0
 18 20  2  0  0  0  0
 20 21  1  0  0  0  0
 20 22  1  0  0  0  0
 22 23  1  0  0  0  0
 23 24  1  0  0  0  0
 24 25  1  0  0  0  0
 24 26  1  0  0  0  0
 24 27  1  0  0  0  0
 27 28  1  0  0  0  0
 23 28  1  0  0  0  0
 28 29  1  0  0  0  0
 28 30  1  0  0  0  0
 23 31  1  0  0  0  0
 22 32  2  0  0  0  0
 15 32  1  0  0  0  0
 32 33  1  0  0  0  0
 14 34  1  0  0  0  0
 14 35  1  0  0  0  0
 11 36  1  0  0  0  0
  1 37  1  0  0  0  0
  1 38  1  0  0  0  0
  1 39  1  0  0  0  0
M  END
> <Potency>
19.0908832386134

> <pIC50>
4.7191739785323366

> <Outcome>
Inactive

> <is_active>
0

$$$$

  Mrv1921 08232120312D          

 40 42  0  0  0  0            999 V2000
   -2.3527    1.1167    0.0000 C   0  0  0  0  0  0  0  0  0  0  0  0
   -2.3527    1.9417    0.0000 C   0  0  0  0  0  0  0  0  0  0  0  0
   -3.0671    2.3542    0.0000 C   0  0  0  0  0  0  0  0  0  0  0  0
   -3.7816    1.9417    0.0000 H   0  0  0  0  0  0  0  0  0  0  0  0
   -3.0671    3.1792    0.0000 C   0  0  0  0  0  0  0  0  0  0  0  0
   -3.7816    3.5917    0.0000 H   0  0  0  0  0  0  0  0  0  0  0  0
   -2.3527    3.5917    0.0000 N   0  0  0  0  0  0  0  0  0  0  0  0
   -1.6382    3.1792    0.0000 C   0  0  0  0  0  0  0  0  0  0  0  0
   -0.9237    3.5917    0.0000 H   0  0  0  0  0  0  0  0  0  0  0  0
   -1.6382    2.3542    0.0000 C   0  0  0  0  0  0  0  0  0  0  0  0
   -0.9237    1.9417    0.0000 N   0  0  0  0  0  0  0  0  0  0  0  0
   -0.2093    2.3542    0.0000 C   0  0  0  0  0  0  0  0  0  0  0  0
   -0.2093    3.1792    0.0000 O   0  0  0  0  0  0  0  0  0  0  0  0
    0.5052    1.9417    0.0000 C   0  0  0  0  0  0  0  0  0  0  0  0
    1.2197    2.3542    0.0000 C   0  0  0  0  0  0  0  0  0  0  0  0
    1.2197    3.1792    0.0000 C   0  0  0  0  0  0  0  0  0  0  0  0
    0.5052    3.5917    0.0000 H   0  0  0  0  0  0  0  0  0  0  0  0
    1.9341    3.5917    0.0000 C   0  0  0  0  0  0  0  0  0  0  0  0
    1.9341    4.4167    0.0000 Cl  0  0  0  0  0  0  0  0  0  0  0  0
    2.6486    3.1792    0.0000 C   0  0  0  0  0  0  0  0  0  0  0  0
    3.3631    3.5917    0.0000 H   0  0  0  0  0  0  0  0  0  0  0  0
    2.6486    2.3542    0.0000 C   0  0  0  0  0  0  0  0  0  0  0  0
    3.3631    1.9417    0.0000 O   0  0  0  0  0  0  0  0  0  0  0  0
    3.3631    1.1167    0.0000 C   0  0  0  0  0  0  0  0  0  0  0  0
    3.9465    0.5333    0.0000 C   0  0  0  0  0  0  0  0  0  0  0  0
    4.6609    0.1208    0.0000 H   0  0  0  0  0  0  0  0  0  0  0  0
    4.6609    0.9458    0.0000 H   0  0  0  0  0  0  0  0  0  0  0  0
    3.3631   -0.0500    0.0000 O   0  0  0  0  0  0  0  0  0  0  0  0
    2.7797    0.5333    0.0000 C   0  0  0  0  0  0  0  0  0  0  0  0
    1.9571    0.4704    0.0000 H   0  0  0  0  0  0  0  0  0  0  0  0
    2.2704   -0.1157    0.0000 H   0  0  0  0  0  0  0  0  0  0  0  0
    2.6009    1.4324    0.0000 H   0  0  0  0  0  0  0  0  0  0  0  0
    1.9341    1.9417    0.0000 C   0  0  0  0  0  0  0  0  0  0  0  0
    1.4766    1.2552    0.0000 H   0  0  0  0  0  0  0  0  0  0  0  0
    0.1349    1.2044    0.0000 H   0  0  0  0  0  0  0  0  0  0  0  0
    0.8755    1.2044    0.0000 H   0  0  0  0  0  0  0  0  0  0  0  0
   -0.9237    1.1167    0.0000 H   0  0  0  0  0  0  0  0  0  0  0  0
   -3.1777    1.1167    0.0000 H   0  0  0  0  0  0  0  0  0  0  0  0
   -2.3527    0.2917    0.0000 H   0  0  0  0  0  0  0  0  0  0  0  0
   -1.5277    1.1167    0.0000 H   0  0  0  0  0  0  0  0  0  0  0  0
  1  2  1  0  0  0  0
  2  3  2  0  0  0  0
  3  4  1  0  0  0  0
  3  5  1  0  0  0  0
  5  6  1  0  0  0  0
  5  7  2  0  0  0  0
  7  8  1  0  0  0  0
  8  9  1  0  0  0  0
  8 10  2  0  0  0  0
  2 10  1  0  0  0  0
 10 11  1  0  0  0  0
 11 12  1  0  0  0  0
 12 13  2  0  0  0  0
 12 14  1  0  0  0  0
 14 15  1  0  0  0  0
 15 16  2  0  0  0  0
 16 17  1  0  0  0  0
 16 18  1  0  0  0  0
 18 19  1  0  0  0  0
 18 20  2  0  0  0  0
 20 21  1  0  0  0  0
 20 22  1  0  0  0  0
 22 23  1  0  0  0  0
 23 24  1  0  0  0  0
 24 25  1  0  0  0  0
 25 26  1  0  0  0  0
 25 27  1  0  0  0  0
 25 28  1  0  0  0  0
 28 29  1  0  0  0  0
 24 29  1  0  0  0  0
 29 30  1  0  0  0  0
 29 31  1  0  0  0  0
 24 32  1  0  0  0  0
 22 33  2  0  0  0  0
 15 33  1  0  0  0  0
 33 34  1  0  0  0  0
 14 35  1  0  0  0  0
 14 36  1  0  0  0  0
 11 37  1  0  0  0  0
  1 38  1  0  0  0  0
  1 39  1  0  0  0  0
  1 40  1  0  0  0  0
M  END
> <Potency>
15.9533573095944

> <pIC50>
4.797147907741655

> <Outcome>
Inactive

> <is_active>
0

$$$$

  Mrv1921 08232120312D          

 39 40  0  0  0  0            999 V2000
   -1.4289   -1.6500    0.0000 C   0  0  0  0  0  0  0  0  0  0  0  0
   -1.4289   -2.4750    0.0000 C   0  0  0  0  0  0  0  0  0  0  0  0
   -0.7145   -2.8875    0.0000 C   0  0  0  0  0  0  0  0  0  0  0  0
    0.0000   -2.4750    0.0000 H   0  0  0  0  0  0  0  0  0  0  0  0
   -0.7145   -3.7125    0.0000 C   0  0  0  0  0  0  0  0  0  0  0  0
    0.0000   -4.1250    0.0000 H   0  0  0  0  0  0  0  0  0  0  0  0
   -1.4289   -4.1250    0.0000 N   0  0  0  0  0  0  0  0  0  0  0  0
   -2.1434   -3.7125    0.0000 C   0  0  0  0  0  0  0  0  0  0  0  0
   -2.8579   -4.1250    0.0000 H   0  0  0  0  0  0  0  0  0  0  0  0
   -2.1434   -2.8875    0.0000 C   0  0  0  0  0  0  0  0  0  0  0  0
   -2.8579   -2.4750    0.0000 N   0  0  0  0  0  0  0  0  0  0  0  0
   -3.5724   -2.8875    0.0000 C   0  0  0  0  0  0  0  0  0  0  0  0
   -3.5724   -3.7125    0.0000 O   0  0  0  0  0  0  0  0  0  0  0  0
   -4.2868   -2.4750    0.0000 C   0  0  0  0  0  0  0  0  0  0  0  0
   -5.0013   -2.8875    0.0000 C   0  0  0  0  0  0  0  0  0  0  0  0
   -5.0013   -3.7125    0.0000 C   0  0  0  0  0  0  0  0  0  0  0  0
   -4.2868   -4.1250    0.0000 H   0  0  0  0  0  0  0  0  0  0  0  0
   -5.7158   -4.1250    0.0000 C   0  0  0  0  0  0  0  0  0  0  0  0
   -5.7158   -4.9500    0.0000 Cl  0  0  0  0  0  0  0  0  0  0  0  0
   -6.4302   -3.7125    0.0000 C   0  0  0  0  0  0  0  0  0  0  0  0
   -7.1447   -4.1250    0.0000 H   0  0  0  0  0  0  0  0  0  0  0  0
   -6.4302   -2.8875    0.0000 C   0  0  0  0  0  0  0  0  0  0  0  0
   -7.1447   -2.4750    0.0000 N   0  0  0  0  0  0  0  0  0  0  0  0
   -7.8592   -2.8875    0.0000 S   0  0  0  0  0  0  0  0  0  0  0  0
   -8.5737   -3.3000    0.0000 C   0  0  0  0  0  0  0  0  0  0  0  0
   -8.9862   -2.5855    0.0000 H   0  0  0  0  0  0  0  0  0  0  0  0
   -9.2881   -3.7125    0.0000 H   0  0  0  0  0  0  0  0  0  0  0  0
   -8.1612   -4.0145    0.0000 H   0  0  0  0  0  0  0  0  0  0  0  0
   -8.2717   -2.1730    0.0000 O   0  0  0  0  0  0  0  0  0  0  0  0
   -7.4467   -3.6020    0.0000 O   0  0  0  0  0  0  0  0  0  0  0  0
   -7.1447   -1.6500    0.0000 H   0  0  0  0  0  0  0  0  0  0  0  0
   -5.7158   -2.4750    0.0000 C   0  0  0  0  0  0  0  0  0  0  0  0
   -5.7158   -1.6500    0.0000 H   0  0  0  0  0  0  0  0  0  0  0  0
   -3.9166   -1.7378    0.0000 H   0  0  0  0  0  0  0  0  0  0  0  0
   -4.6571   -1.7378    0.0000 H   0  0  0  0  0  0  0  0  0  0  0  0
   -2.8579   -1.6500    0.0000 H   0  0  0  0  0  0  0  0  0  0  0  0
   -0.6039   -1.6500    0.0000 H   0  0  0  0  0  0  0  0  0  0  0  0
   -1.4289   -0.8250    0.0000 H   0  0  0  0  0  0  0  0  0  0  0  0
   -2.2539   -1.6500    0.0000 H   0  0  0  0  0  0  0  0  0  0  0  0
  1  2  1  0  0  0  0
  2  3  2  0  0  0  0
  3  4  1  0  0  0  0
  3  5  1  0  0  0  0
  5  6  1  0  0  0  0
  5  7  2  0  0  0  0
  7  8  1  0  0  0  0
  8  9  1  0  0  0  0
  8 10  2  0  0  0  0
  2 10  1  0  0  0  0
 10 11  1  0  0  0  0
 11 12  1  0  0  0  0
 12 13  2  0  0  0  0
 12 14  1  0  0  0  0
 14 15  1  0  0  0  0
 15 16  2  0  0  0  0
 16 17  1  0  0  0  0
 16 18  1  0  0  0  0
 18 19  1  0  0  0  0
 18 20  2  0  0  0  0
 20 21  1  0  0  0  0
 20 22  1  0  0  0  0
 22 23  1  0  0  0  0
 23 24  1  0  0  0  0
 24 25  1  0  0  0  0
 25 26  1  0  0  0  0
 25 27  1  0  0  0  0
 25 28  1  0  0  0  0
 24 29  2  0  0  0  0
 24 30  2  0  0  0  0
 23 31  1  0  0  0  0
 22 32  2  0  0  0  0
 15 32  1  0  0  0  0
 32 33  1  0  0  0  0
 14 34  1  0  0  0  0
 14 35  1  0  0  0  0
 11 36  1  0  0  0  0
  1 37  1  0  0  0  0
  1 38  1  0  0  0  0
  1 39  1  0  0  0  0
M  END
> <Potency>
21.7971619825337

> <pIC50>
4.661600048393582

> <Outcome>
Inactive

> <is_active>
0

$$$$

  Mrv1921 08232120312D          

 38 39  0  0  0  0            999 V2000
   -1.4289   -1.6500    0.0000 C   0  0  0  0  0  0  0  0  0  0  0  0
   -1.4289   -2.4750    0.0000 C   0  0  0  0  0  0  0  0  0  0  0  0
   -0.7145   -2.8875    0.0000 C   0  0  0  0  0  0  0  0  0  0  0  0
    0.0000   -2.4750    0.0000 H   0  0  0  0  0  0  0  0  0  0  0  0
   -0.7145   -3.7125    0.0000 C   0  0  0  0  0  0  0  0  0  0  0  0
    0.0000   -4.1250    0.0000 H   0  0  0  0  0  0  0  0  0  0  0  0
   -1.4289   -4.1250    0.0000 N   0  0  0  0  0  0  0  0  0  0  0  0
   -2.1434   -3.7125    0.0000 C   0  0  0  0  0  0  0  0  0  0  0  0
   -2.8579   -4.1250    0.0000 H   0  0  0  0  0  0  0  0  0  0  0  0
   -2.1434   -2.8875    0.0000 C   0  0  0  0  0  0  0  0  0  0  0  0
   -2.8579   -2.4750    0.0000 N   0  0  0  0  0  0  0  0  0  0  0  0
   -3.5724   -2.8875    0.0000 C   0  0  0  0  0  0  0  0  0  0  0  0
   -3.5724   -3.7125    0.0000 O   0  0  0  0  0  0  0  0  0  0  0  0
   -4.2868   -2.4750    0.0000 C   0  0  0  0  0  0  0  0  0  0  0  0
   -5.0013   -2.8875    0.0000 C   0  0  0  0  0  0  0  0  0  0  0  0
   -5.0013   -3.7125    0.0000 C   0  0  0  0  0  0  0  0  0  0  0  0
   -4.2868   -4.1250    0.0000 H   0  0  0  0  0  0  0  0  0  0  0  0
   -5.7158   -4.1250    0.0000 C   0  0  0  0  0  0  0  0  0  0  0  0
   -5.7158   -4.9500    0.0000 Cl  0  0  0  0  0  0  0  0  0  0  0  0
   -6.4302   -3.7125    0.0000 C   0  0  0  0  0  0  0  0  0  0  0  0
   -7.1447   -4.1250    0.0000 H   0  0  0  0  0  0  0  0  0  0  0  0
   -6.4302   -2.8875    0.0000 C   0  0  0  0  0  0  0  0  0  0  0  0
   -7.1447   -2.4750    0.0000 N   0  0  0  0  0  0  0  0  0  0  0  0
   -7.8592   -2.8875    0.0000 S   0  0  0  0  0  0  0  0  0  0  0  0
   -8.5737   -3.3000    0.0000 N   0  0  0  0  0  0  0  0  0  0  0  0
   -9.2881   -2.8875    0.0000 H   0  0  0  0  0  0  0  0  0  0  0  0
   -8.5737   -4.1250    0.0000 H   0  0  0  0  0  0  0  0  0  0  0  0
   -8.2717   -2.1730    0.0000 O   0  0  0  0  0  0  0  0  0  0  0  0
   -7.4467   -3.6020    0.0000 O   0  0  0  0  0  0  0  0  0  0  0  0
   -7.1447   -1.6500    0.0000 H   0  0  0  0  0  0  0  0  0  0  0  0
   -5.7158   -2.4750    0.0000 C   0  0  0  0  0  0  0  0  0  0  0  0
   -5.7158   -1.6500    0.0000 H   0  0  0  0  0  0  0  0  0  0  0  0
   -3.9166   -1.7378    0.0000 H   0  0  0  0  0  0  0  0  0  0  0  0
   -4.6571   -1.7378    0.0000 H   0  0  0  0  0  0  0  0  0  0  0  0
   -2.8579   -1.6500    0.0000 H   0  0  0  0  0  0  0  0  0  0  0  0
   -0.6039   -1.6500    0.0000 H   0  0  0  0  0  0  0  0  0  0  0  0
   -1.4289   -0.8250    0.0000 H   0  0  0  0  0  0  0  0  0  0  0  0
   -2.2539   -1.6500    0.0000 H   0  0  0  0  0  0  0  0  0  0  0  0
  1  2  1  0  0  0  0
  2  3  2  0  0  0  0
  3  4  1  0  0  0  0
  3  5  1  0  0  0  0
  5  6  1  0  0  0  0
  5  7  2  0  0  0  0
  7  8  1  0  0  0  0
  8  9  1  0  0  0  0
  8 10  2  0  0  0  0
  2 10  1  0  0  0  0
 10 11  1  0  0  0  0
 11 12  1  0  0  0  0
 12 13  2  0  0  0  0
 12 14  1  0  0  0  0
 14 15  1  0  0  0  0
 15 16  2  0  0  0  0
 16 17  1  0  0  0  0
 16 18  1  0  0  0  0
 18 19  1  0  0  0  0
 18 20  2  0  0  0  0
 20 21  1  0  0  0  0
 20 22  1  0  0  0  0
 22 23  1  0  0  0  0
 23 24  1  0  0  0  0
 24 25  1  0  0  0  0
 25 26  1  0  0  0  0
 25 27  1  0  0  0  0
 24 28  2  0  0  0  0
 24 29  2  0  0  0  0
 23 30  1  0  0  0  0
 22 31  2  0  0  0  0
 15 31  1  0  0  0  0
 31 32  1  0  0  0  0
 14 33  1  0  0  0  0
 14 34  1  0  0  0  0
 11 35  1  0  0  0  0
  1 36  1  0  0  0  0
  1 37  1  0  0  0  0
  1 38  1  0  0  0  0
M  END
> <Potency>
11.2565912024338

> <pIC50>
4.9485931055864505

> <Outcome>
Inactive

> <is_active>
0

$$$$

  Mrv1921 08232120312D          

 37 39  0  0  0  0            999 V2000
    2.1434   -2.8875    0.0000 O   0  0  0  0  0  0  0  0  0  0  0  0
    1.4289   -2.4750    0.0000 C   0  0  0  0  0  0  0  0  0  0  0  0
    0.7145   -2.8875    0.0000 N   0  0  0  0  0  0  0  0  0  0  0  0
    0.7145   -3.7125    0.0000 C   0  0  0  0  0  0  0  0  0  0  0  0
    1.4289   -4.1250    0.0000 C   0  0  0  0  0  0  0  0  0  0  0  0
    2.1434   -3.7125    0.0000 H   0  0  0  0  0  0  0  0  0  0  0  0
    1.4289   -4.9500    0.0000 N   0  0  0  0  0  0  0  0  0  0  0  0
    0.7145   -5.3625    0.0000 C   0  0  0  0  0  0  0  0  0  0  0  0
    0.7145   -6.1875    0.0000 H   0  0  0  0  0  0  0  0  0  0  0  0
    0.0000   -4.9500    0.0000 C   0  0  0  0  0  0  0  0  0  0  0  0
   -0.7145   -5.3625    0.0000 H   0  0  0  0  0  0  0  0  0  0  0  0
    0.0000   -4.1250    0.0000 C   0  0  0  0  0  0  0  0  0  0  0  0
   -0.7145   -3.7125    0.0000 C   0  0  0  0  0  0  0  0  0  0  0  0
   -0.7145   -2.8875    0.0000 O   0  0  0  0  0  0  0  0  0  0  0  0
   -1.4289   -2.4750    0.0000 H   0  0  0  0  0  0  0  0  0  0  0  0
   -1.5381   -3.7605    0.0000 H   0  0  0  0  0  0  0  0  0  0  0  0
   -1.1678   -4.4018    0.0000 H   0  0  0  0  0  0  0  0  0  0  0  0
    0.0000   -2.4750    0.0000 H   0  0  0  0  0  0  0  0  0  0  0  0
    1.4289   -1.6500    0.0000 C   0  0  0  0  0  0  0  0  0  0  0  0
    0.7145   -1.2375    0.0000 C   0  0  0  0  0  0  0  0  0  0  0  0
   -0.1091   -1.2855    0.0000 H   0  0  0  0  0  0  0  0  0  0  0  0
    0.2611   -1.9268    0.0000 H   0  0  0  0  0  0  0  0  0  0  0  0
    0.7145   -0.4125    0.0000 C   0  0  0  0  0  0  0  0  0  0  0  0
    0.2611    0.2768    0.0000 H   0  0  0  0  0  0  0  0  0  0  0  0
   -0.1091   -0.3645    0.0000 H   0  0  0  0  0  0  0  0  0  0  0  0
    1.4289    0.0000    0.0000 O   0  0  0  0  0  0  0  0  0  0  0  0
    2.1434   -0.4125    0.0000 C   0  0  0  0  0  0  0  0  0  0  0  0
    2.8579    0.0000    0.0000 C   0  0  0  0  0  0  0  0  0  0  0  0
    3.5724   -0.4125    0.0000 C   0  0  0  0  0  0  0  0  0  0  0  0
    3.5724   -1.2375    0.0000 C   0  0  0  0  0  0  0  0  0  0  0  0
    4.2868   -1.6500    0.0000 Cl  0  0  0  0  0  0  0  0  0  0  0  0
    2.8579   -1.6500    0.0000 C   0  0  0  0  0  0  0  0  0  0  0  0
    3.2704   -2.3645    0.0000 H   0  0  0  0  0  0  0  0  0  0  0  0
    2.1434   -1.2375    0.0000 C   0  0  0  0  0  0  0  0  0  0  0  0
    4.2868   -0.0000    0.0000 H   0  0  0  0  0  0  0  0  0  0  0  0
    2.8579    0.8250    0.0000 H   0  0  0  0  0  0  0  0  0  0  0  0
    2.1434   -2.0625    0.0000 H   0  0  0  0  0  0  0  0  0  0  0  0
  1  2  2  0  0  0  0
  2  3  1  0  0  0  0
  3  4  1  0  0  0  0
  4  5  2  0  0  0  0
  5  6  1  0  0  0  0
  5  7  1  0  0  0  0
  7  8  2  0  0  0  0
  8  9  1  0  0  0  0
  8 10  1  0  0  0  0
 10 11  1  0  0  0  0
 10 12  2  0  0  0  0
  4 12  1  0  0  0  0
 12 13  1  0  0  0  0
 13 14  1  0  0  0  0
 14 15  1  0  0  0  0
 13 16  1  0  0  0  0
 13 17  1  0  0  0  0
  3 18  1  0  0  0  0
  2 19  1  0  0  0  0
 19 20  1  0  0  0  0
 20 21  1  0  0  0  0
 20 22  1  0  0  0  0
 20 23  1  0  0  0  0
 23 24  1  0  0  0  0
 23 25  1  0  0  0  0
 23 26  1  0  0  0  0
 26 27  1  0  0  0  0
 27 28  2  0  0  0  0
 28 29  1  0  0  0  0
 29 30  2  0  0  0  0
 30 31  1  0  0  0  0
 30 32  1  0  0  0  0
 32 33  1  0  0  0  0
 32 34  2  0  0  0  0
 19 34  1  0  0  0  0
 27 34  1  0  0  0  0
 29 35  1  0  0  0  0
 28 36  1  0  0  0  0
 19 37  1  0  0  0  0
M  END
> <Potency>
13.6719871340003

> <pIC50>
4.864168358979193

> <Outcome>
Inactive

> <is_active>
0

$$$$

  Mrv1921 08232120312D          

 39 42  0  0  0  0            999 V2000
    0.7145   -2.8875    0.0000 O   0  0  0  0  0  0  0  0  0  0  0  0
    1.4289   -2.4750    0.0000 C   0  0  0  0  0  0  0  0  0  0  0  0
    2.1434   -2.8875    0.0000 N   0  0  0  0  0  0  0  0  0  0  0  0
    2.1434   -3.7125    0.0000 C   0  0  0  0  0  0  0  0  0  0  0  0
    2.8109   -4.1974    0.0000 N   0  0  0  0  0  0  0  0  0  0  0  0
    2.5559   -4.9820    0.0000 N   0  0  0  0  0  0  0  0  0  0  0  0
    1.7309   -4.9820    0.0000 C   0  0  0  0  0  0  0  0  0  0  0  0
    1.2460   -5.6495    0.0000 H   0  0  0  0  0  0  0  0  0  0  0  0
    1.4760   -4.1974    0.0000 N   0  0  0  0  0  0  0  0  0  0  0  0
    0.6914   -3.9425    0.0000 C   0  0  0  0  0  0  0  0  0  0  0  0
   -0.1156   -4.1140    0.0000 C   0  0  0  0  0  0  0  0  0  0  0  0
   -0.9312   -4.2383    0.0000 H   0  0  0  0  0  0  0  0  0  0  0  0
   -0.3245   -4.9121    0.0000 H   0  0  0  0  0  0  0  0  0  0  0  0
    0.1393   -3.3294    0.0000 C   0  0  0  0  0  0  0  0  0  0  0  0
   -0.2848   -2.6218    0.0000 H   0  0  0  0  0  0  0  0  0  0  0  0
   -0.6694   -3.1663    0.0000 H   0  0  0  0  0  0  0  0  0  0  0  0
    1.1407   -3.2506    0.0000 H   0  0  0  0  0  0  0  0  0  0  0  0
    2.8579   -2.4750    0.0000 H   0  0  0  0  0  0  0  0  0  0  0  0
    1.4289   -1.6500    0.0000 C   0  0  0  0  0  0  0  0  0  0  0  0
    0.7145   -1.2375    0.0000 C   0  0  0  0  0  0  0  0  0  0  0  0
   -0.1091   -1.2855    0.0000 H   0  0  0  0  0  0  0  0  0  0  0  0
    0.2611   -1.9268    0.0000 H   0  0  0  0  0  0  0  0  0  0  0  0
    0.7145   -0.4125    0.0000 C   0  0  0  0  0  0  0  0  0  0  0  0
    0.2611    0.2768    0.0000 H   0  0  0  0  0  0  0  0  0  0  0  0
   -0.1091   -0.3645    0.0000 H   0  0  0  0  0  0  0  0  0  0  0  0
    1.4289    0.0000    0.0000 S   0  0  0  0  0  0  0  0  0  0  0  0
    0.8986    0.6320    0.0000 O   0  0  0  0  0  0  0  0  0  0  0  0
    1.9592    0.6320    0.0000 O   0  0  0  0  0  0  0  0  0  0  0  0
    2.1434   -0.4125    0.0000 C   0  0  0  0  0  0  0  0  0  0  0  0
    2.8579    0.0000    0.0000 C   0  0  0  0  0  0  0  0  0  0  0  0
    3.5724   -0.4125    0.0000 C   0  0  0  0  0  0  0  0  0  0  0  0
    3.5724   -1.2375    0.0000 C   0  0  0  0  0  0  0  0  0  0  0  0
    2.8579   -1.6500    0.0000 C   0  0  0  0  0  0  0  0  0  0  0  0
    2.8579   -0.8250    0.0000 H   0  0  0  0  0  0  0  0  0  0  0  0
    2.1434   -1.2375    0.0000 C   0  0  0  0  0  0  0  0  0  0  0  0
    4.2868   -1.6500    0.0000 H   0  0  0  0  0  0  0  0  0  0  0  0
    4.2868   -0.0000    0.0000 H   0  0  0  0  0  0  0  0  0  0  0  0
    2.8579    0.8250    0.0000 H   0  0  0  0  0  0  0  0  0  0  0  0
    2.1434   -2.0625    0.0000 H   0  0  0  0  0  0  0  0  0  0  0  0
  1  2  2  0  0  0  0
  2  3  1  0  0  0  0
  3  4  1  0  0  0  0
  4  5  2  0  0  0  0
  5  6  1  0  0  0  0
  6  7  2  0  0  0  0
  7  8  1  0  0  0  0
  7  9  1  0  0  0  0
  4  9  1  0  0  0  0
  9 10  1  0  0  0  0
 10 11  1  0  0  0  0
 11 12  1  0  0  0  0
 11 13  1  0  0  0  0
 11 14  1  0  0  0  0
 10 14  1  0  0  0  0
 14 15  1  0  0  0  0
 14 16  1  0  0  0  0
 10 17  1  0  0  0  0
  3 18  1  0  0  0  0
  2 19  1  0  0  0  0
 19 20  1  0  0  0  0
 20 21  1  0  0  0  0
 20 22  1  0  0  0  0
 20 23  1  0  0  0  0
 23 24  1  0  0  0  0
 23 25  1  0  0  0  0
 23 26  1  0  0  0  0
 26 27  2  0  0  0  0
 26 28  2  0  0  0  0
 26 29  1  0  0  0  0
 29 30  2  0  0  0  0
 30 31  1  0  0  0  0
 31 32  2  0  0  0  0
 32 33  1  0  0  0  0
 33 34  1  0  0  0  0
 33 35  2  0  0  0  0
 19 35  1  0  0  0  0
 29 35  1  0  0  0  0
 32 36  1  0  0  0  0
 31 37  1  0  0  0  0
 30 38  1  0  0  0  0
 19 39  1  0  0  0  0
M  END
> <Potency>
68.8611797518784

> <pIC50>
4.162025541094867

> <Outcome>
Inactive

> <is_active>
0

$$$$

  Mrv1921 08232120312D          

 46 49  0  0  0  0            999 V2000
    2.8579   -2.4750    0.0000 O   0  0  0  0  0  0  0  0  0  0  0  0
    2.1434   -2.8875    0.0000 C   0  0  0  0  0  0  0  0  0  0  0  0
    1.4289   -2.4750    0.0000 C   0  0  0  0  0  0  0  0  0  0  0  0
    1.4289   -1.6500    0.0000 C   0  0  0  0  0  0  0  0  0  0  0  0
    0.7145   -1.2375    0.0000 C   0  0  0  0  0  0  0  0  0  0  0  0
    0.0000   -1.6500    0.0000 H   0  0  0  0  0  0  0  0  0  0  0  0
    0.7145   -0.4125    0.0000 N   0  0  0  0  0  0  0  0  0  0  0  0
    1.4289    0.0000    0.0000 C   0  0  0  0  0  0  0  0  0  0  0  0
    1.4289    0.8250    0.0000 H   0  0  0  0  0  0  0  0  0  0  0  0
    2.1434   -0.4125    0.0000 C   0  0  0  0  0  0  0  0  0  0  0  0
    2.8579    0.0000    0.0000 C   0  0  0  0  0  0  0  0  0  0  0  0
    3.5724   -0.4125    0.0000 C   0  0  0  0  0  0  0  0  0  0  0  0
    3.5724   -1.2375    0.0000 C   0  0  0  0  0  0  0  0  0  0  0  0
    2.8579   -1.6500    0.0000 C   0  0  0  0  0  0  0  0  0  0  0  0
    2.1434   -2.0625    0.0000 H   0  0  0  0  0  0  0  0  0  0  0  0
    2.1434   -1.2375    0.0000 C   0  0  0  0  0  0  0  0  0  0  0  0
    4.2868   -1.6500    0.0000 H   0  0  0  0  0  0  0  0  0  0  0  0
    4.2868   -0.0000    0.0000 H   0  0  0  0  0  0  0  0  0  0  0  0
    2.8579    0.8250    0.0000 H   0  0  0  0  0  0  0  0  0  0  0  0
    0.6053   -2.5230    0.0000 H   0  0  0  0  0  0  0  0  0  0  0  0
    0.9756   -3.1643    0.0000 H   0  0  0  0  0  0  0  0  0  0  0  0
    2.1434   -3.7125    0.0000 N   0  0  0  0  0  0  0  0  0  0  0  0
    2.8579   -4.1250    0.0000 C   0  0  0  0  0  0  0  0  0  0  0  0
    3.5724   -3.7125    0.0000 C   0  0  0  0  0  0  0  0  0  0  0  0
    3.5724   -2.8875    0.0000 H   0  0  0  0  0  0  0  0  0  0  0  0
    4.2868   -4.1250    0.0000 C   0  0  0  0  0  0  0  0  0  0  0  0
    5.0013   -3.7125    0.0000 Cl  0  0  0  0  0  0  0  0  0  0  0  0
    4.2868   -4.9500    0.0000 C   0  0  0  0  0  0  0  0  0  0  0  0
    5.0013   -5.3625    0.0000 H   0  0  0  0  0  0  0  0  0  0  0  0
    3.5724   -5.3625    0.0000 C   0  0  0  0  0  0  0  0  0  0  0  0
    3.5724   -6.1875    0.0000 O   0  0  0  0  0  0  0  0  0  0  0  0
    4.2868   -6.6000    0.0000 C   0  0  0  0  0  0  0  0  0  0  0  0
    5.0405   -6.2644    0.0000 C   0  0  0  0  0  0  0  0  0  0  0  0
    5.8041   -5.9521    0.0000 H   0  0  0  0  0  0  0  0  0  0  0  0
    4.3390   -5.8302    0.0000 H   0  0  0  0  0  0  0  0  0  0  0  0
    5.5925   -6.8775    0.0000 C   0  0  0  0  0  0  0  0  0  0  0  0
    6.1925   -7.4438    0.0000 H   0  0  0  0  0  0  0  0  0  0  0  0
    6.4175   -6.8709    0.0000 H   0  0  0  0  0  0  0  0  0  0  0  0
    5.1800   -7.5920    0.0000 C   0  0  0  0  0  0  0  0  0  0  0  0
    5.5156   -8.3457    0.0000 O   0  0  0  0  0  0  0  0  0  0  0  0
    4.3731   -7.4205    0.0000 N   0  0  0  0  0  0  0  0  0  0  0  0
    4.1079   -8.2017    0.0000 H   0  0  0  0  0  0  0  0  0  0  0  0
    3.5949   -7.0493    0.0000 H   0  0  0  0  0  0  0  0  0  0  0  0
    2.8579   -4.9500    0.0000 C   0  0  0  0  0  0  0  0  0  0  0  0
    2.1434   -5.3625    0.0000 H   0  0  0  0  0  0  0  0  0  0  0  0
    1.4289   -4.1250    0.0000 H   0  0  0  0  0  0  0  0  0  0  0  0
  1  2  2  0  0  0  0
  2  3  1  0  0  0  0
  3  4  1  0  0  0  0
  4  5  2  0  0  0  0
  5  6  1  0  0  0  0
  5  7  1  0  0  0  0
  7  8  2  0  0  0  0
  8  9  1  0  0  0  0
  8 10  1  0  0  0  0
 10 11  2  0  0  0  0
 11 12  1  0  0  0  0
 12 13  2  0  0  0  0
 13 14  1  0  0  0  0
 14 15  1  0  0  0  0
 14 16  2  0  0  0  0
  4 16  1  0  0  0  0
 10 16  1  0  0  0  0
 13 17  1  0  0  0  0
 12 18  1  0  0  0  0
 11 19  1  0  0  0  0
  3 20  1  0  0  0  0
  3 21  1  0  0  0  0
  2 22  1  0  0  0  0
 22 23  1  0  0  0  0
 23 24  2  0  0  0  0
 24 25  1  0  0  0  0
 24 26  1  0  0  0  0
 26 27  1  0  0  0  0
 26 28  2  0  0  0  0
 28 29  1  0  0  0  0
 28 30  1  0  0  0  0
 30 31  1  0  0  0  0
 31 32  1  0  0  0  0
 32 33  1  0  0  0  0
 33 34  1  0  0  0  0
 33 35  1  0  0  0  0
 33 36  1  0  0  0  0
 36 37  1  0  0  0  0
 36 38  1  0  0  0  0
 36 39  1  0  0  0  0
 39 40  2  0  0  0  0
 39 41  1  0  0  0  0
 32 41  1  0  0  0  0
 41 42  1  0  0  0  0
 32 43  1  0  0  0  0
 30 44  2  0  0  0  0
 23 44  1  0  0  0  0
 44 45  1  0  0  0  0
 22 46  1  0  0  0  0
M  END
> <Potency>
38.3737944050524

> <pIC50>
4.415965255591834

> <Outcome>
Inactive

> <is_active>
0

$$$$

  Mrv1921 08232120312D          

 29 30  0  0  0  0            999 V2000
    2.7512   -1.7116    0.0000 C   0  0  0  0  0  0  0  0  0  0  0  0
    2.7512   -2.5366    0.0000 C   0  0  0  0  0  0  0  0  0  0  0  0
    3.4186   -3.0215    0.0000 N   0  0  0  0  0  0  0  0  0  0  0  0
    4.2032   -2.7666    0.0000 H   0  0  0  0  0  0  0  0  0  0  0  0
    3.1637   -3.8062    0.0000 N   0  0  0  0  0  0  0  0  0  0  0  0
    2.3387   -3.8062    0.0000 C   0  0  0  0  0  0  0  0  0  0  0  0
    1.8538   -4.4736    0.0000 H   0  0  0  0  0  0  0  0  0  0  0  0
    2.0837   -3.0215    0.0000 C   0  0  0  0  0  0  0  0  0  0  0  0
    1.2991   -2.7666    0.0000 C   0  0  0  0  0  0  0  0  0  0  0  0
    1.1276   -1.9596    0.0000 C   0  0  0  0  0  0  0  0  0  0  0  0
    1.7407   -1.4076    0.0000 O   0  0  0  0  0  0  0  0  0  0  0  0
    0.3430   -1.7047    0.0000 N   0  0  0  0  0  0  0  0  0  0  0  0
    0.1714   -0.8977    0.0000 C   0  0  0  0  0  0  0  0  0  0  0  0
   -0.6132   -0.6428    0.0000 C   0  0  0  0  0  0  0  0  0  0  0  0
   -1.2263   -1.1948    0.0000 H   0  0  0  0  0  0  0  0  0  0  0  0
   -0.7847    0.1642    0.0000 C   0  0  0  0  0  0  0  0  0  0  0  0
   -1.5693    0.4191    0.0000 H   0  0  0  0  0  0  0  0  0  0  0  0
   -0.1716    0.7162    0.0000 C   0  0  0  0  0  0  0  0  0  0  0  0
   -0.3431    1.5232    0.0000 H   0  0  0  0  0  0  0  0  0  0  0  0
    0.6130    0.4613    0.0000 C   0  0  0  0  0  0  0  0  0  0  0  0
    1.2261    1.0133    0.0000 Cl  0  0  0  0  0  0  0  0  0  0  0  0
    0.7845   -0.3457    0.0000 C   0  0  0  0  0  0  0  0  0  0  0  0
    1.5692   -0.6006    0.0000 H   0  0  0  0  0  0  0  0  0  0  0  0
   -0.2701   -2.2567    0.0000 H   0  0  0  0  0  0  0  0  0  0  0  0
    0.5035   -2.9847    0.0000 H   0  0  0  0  0  0  0  0  0  0  0  0
    0.9990   -3.5351    0.0000 H   0  0  0  0  0  0  0  0  0  0  0  0
    3.5762   -1.7116    0.0000 H   0  0  0  0  0  0  0  0  0  0  0  0
    2.7512   -0.8866    0.0000 H   0  0  0  0  0  0  0  0  0  0  0  0
    1.9262   -1.7116    0.0000 H   0  0  0  0  0  0  0  0  0  0  0  0
  1  2  1  0  0  0  0
  2  3  1  0  0  0  0
  3  4  1  0  0  0  0
  3  5  1  0  0  0  0
  5  6  2  0  0  0  0
  6  7  1  0  0  0  0
  6  8  1  0  0  0  0
  2  8  2  0  0  0  0
  8  9  1  0  0  0  0
  9 10  1  0  0  0  0
 10 11  2  0  0  0  0
 10 12  1  0  0  0  0
 12 13  1  0  0  0  0
 13 14  2  0  0  0  0
 14 15  1  0  0  0  0
 14 16  1  0  0  0  0
 16 17  1  0  0  0  0
 16 18  2  0  0  0  0
 18 19  1  0  0  0  0
 18 20  1  0  0  0  0
 20 21  1  0  0  0  0
 20 22  2  0  0  0  0
 13 22  1  0  0  0  0
 22 23  1  0  0  0  0
 12 24  1  0  0  0  0
  9 25  1  0  0  0  0
  9 26  1  0  0  0  0
  1 27  1  0  0  0  0
  1 28  1  0  0  0  0
  1 29  1  0  0  0  0
M  END
> <Potency>
54.6063912992571

> <pIC50>
4.262756523164224

> <Outcome>
Inactive

> <is_active>
0

$$$$

  Mrv1921 08232120312D          

 64 66  0  0  0  0            999 V2000
    0.2700   -3.8782    0.0000 C   0  0  0  0  0  0  0  0  0  0  0  0
    0.5401   -3.0986    0.0000 C   0  0  0  0  0  0  0  0  0  0  0  0
    0.0000   -2.4750    0.0000 C   0  0  0  0  0  0  0  0  0  0  0  0
   -0.8101   -2.6309    0.0000 O   0  0  0  0  0  0  0  0  0  0  0  0
    0.2700   -1.6954    0.0000 N   0  0  0  0  0  0  0  0  0  0  0  0
   -0.2700   -1.0718    0.0000 C   0  0  0  0  0  0  0  0  0  0  0  0
   -1.0802   -1.2277    0.0000 C   0  0  0  0  0  0  0  0  0  0  0  0
   -1.3502   -2.0073    0.0000 H   0  0  0  0  0  0  0  0  0  0  0  0
   -1.6203   -0.6041    0.0000 C   0  0  0  0  0  0  0  0  0  0  0  0
   -2.4304   -0.7600    0.0000 H   0  0  0  0  0  0  0  0  0  0  0  0
   -1.3502    0.1755    0.0000 C   0  0  0  0  0  0  0  0  0  0  0  0
   -1.8903    0.7991    0.0000 C   0  0  0  0  0  0  0  0  0  0  0  0
   -2.4304    1.4228    0.0000 C   0  0  0  0  0  0  0  0  0  0  0  0
   -1.8068    1.9628    0.0000 H   0  0  0  0  0  0  0  0  0  0  0  0
   -2.9705    2.0464    0.0000 H   0  0  0  0  0  0  0  0  0  0  0  0
   -3.0540    0.8827    0.0000 H   0  0  0  0  0  0  0  0  0  0  0  0
   -2.5140    0.2590    0.0000 C   0  0  0  0  0  0  0  0  0  0  0  0
   -3.2968   -0.0013    0.0000 H   0  0  0  0  0  0  0  0  0  0  0  0
   -2.5730   -0.5639    0.0000 H   0  0  0  0  0  0  0  0  0  0  0  0
   -1.7763   -0.1105    0.0000 H   0  0  0  0  0  0  0  0  0  0  0  0
   -1.2667    1.3392    0.0000 C   0  0  0  0  0  0  0  0  0  0  0  0
   -1.0064    0.5564    0.0000 H   0  0  0  0  0  0  0  0  0  0  0  0
   -0.4438    1.2801    0.0000 H   0  0  0  0  0  0  0  0  0  0  0  0
   -0.8972    2.0768    0.0000 H   0  0  0  0  0  0  0  0  0  0  0  0
   -0.5401    0.3314    0.0000 C   0  0  0  0  0  0  0  0  0  0  0  0
    0.2465    0.5801    0.0000 H   0  0  0  0  0  0  0  0  0  0  0  0
    0.0000   -0.2923    0.0000 C   0  0  0  0  0  0  0  0  0  0  0  0
    0.5401   -0.9159    0.0000 H   0  0  0  0  0  0  0  0  0  0  0  0
    1.0802   -1.5395    0.0000 C   0  0  0  0  0  0  0  0  0  0  0  0
    1.6203   -2.1632    0.0000 C   0  0  0  0  0  0  0  0  0  0  0  0
    1.3502   -2.9427    0.0000 O   0  0  0  0  0  0  0  0  0  0  0  0
    2.4304   -2.0073    0.0000 N   0  0  0  0  0  0  0  0  0  0  0  0
    2.9705   -2.6309    0.0000 C   0  0  0  0  0  0  0  0  0  0  0  0
    3.7806   -2.4750    0.0000 C   0  0  0  0  0  0  0  0  0  0  0  0
    4.3207   -3.0986    0.0000 C   0  0  0  0  0  0  0  0  0  0  0  0
    5.1308   -2.9427    0.0000 C   0  0  0  0  0  0  0  0  0  0  0  0
    5.4009   -2.1632    0.0000 H   0  0  0  0  0  0  0  0  0  0  0  0
    5.6709   -3.5664    0.0000 C   0  0  0  0  0  0  0  0  0  0  0  0
    6.4811   -3.4105    0.0000 H   0  0  0  0  0  0  0  0  0  0  0  0
    5.4009   -4.3459    0.0000 C   0  0  0  0  0  0  0  0  0  0  0  0
    5.9410   -4.9696    0.0000 H   0  0  0  0  0  0  0  0  0  0  0  0
    4.5908   -4.5018    0.0000 C   0  0  0  0  0  0  0  0  0  0  0  0
    4.3207   -5.2814    0.0000 F   0  0  0  0  0  0  0  0  0  0  0  0
    4.0507   -3.8782    0.0000 C   0  0  0  0  0  0  0  0  0  0  0  0
    3.2405   -4.0341    0.0000 H   0  0  0  0  0  0  0  0  0  0  0  0
    4.3718   -1.8996    0.0000 H   0  0  0  0  0  0  0  0  0  0  0  0
    3.6721   -1.6572    0.0000 H   0  0  0  0  0  0  0  0  0  0  0  0
    2.3793   -3.2063    0.0000 H   0  0  0  0  0  0  0  0  0  0  0  0
    3.0790   -3.4487    0.0000 H   0  0  0  0  0  0  0  0  0  0  0  0
    3.0540   -1.4672    0.0000 H   0  0  0  0  0  0  0  0  0  0  0  0
    1.3502   -0.7600    0.0000 C   0  0  0  0  0  0  0  0  0  0  0  0
    0.8101   -0.1363    0.0000 C   0  0  0  0  0  0  0  0  0  0  0  0
    1.6203    0.0196    0.0000 H   0  0  0  0  0  0  0  0  0  0  0  0
    1.0802    0.6432    0.0000 N   0  0  0  0  0  0  0  0  0  0  0  0
    1.8903    0.7991    0.0000 C   0  0  0  0  0  0  0  0  0  0  0  0
    2.1604    1.5787    0.0000 H   0  0  0  0  0  0  0  0  0  0  0  0
    2.4304    0.1755    0.0000 C   0  0  0  0  0  0  0  0  0  0  0  0
    3.2405    0.3314    0.0000 Cl  0  0  0  0  0  0  0  0  0  0  0  0
    2.1604   -0.6041    0.0000 C   0  0  0  0  0  0  0  0  0  0  0  0
    2.9399   -0.8741    0.0000 H   0  0  0  0  0  0  0  0  0  0  0  0
    1.8903   -1.3836    0.0000 H   0  0  0  0  0  0  0  0  0  0  0  0
    0.8101   -2.3191    0.0000 H   0  0  0  0  0  0  0  0  0  0  0  0
   -0.5401   -4.0341    0.0000 H   0  0  0  0  0  0  0  0  0  0  0  0
    0.8101   -4.5018    0.0000 H   0  0  0  0  0  0  0  0  0  0  0  0
  1  2  2  0  0  0  0
  2  3  1  0  0  0  0
  3  4  2  0  0  0  0
  3  5  1  0  0  0  0
  5  6  1  0  0  0  0
  6  7  2  0  0  0  0
  7  8  1  0  0  0  0
  7  9  1  0  0  0  0
  9 10  1  0  0  0  0
  9 11  2  0  0  0  0
 11 12  1  0  0  0  0
 12 13  1  0  0  0  0
 13 14  1  0  0  0  0
 13 15  1  0  0  0  0
 13 16  1  0  0  0  0
 12 17  1  0  0  0  0
 17 18  1  0  0  0  0
 17 19  1  0  0  0  0
 17 20  1  0  0  0  0
 12 21  1  0  0  0  0
 21 22  1  0  0  0  0
 21 23  1  0  0  0  0
 21 24  1  0  0  0  0
 11 25  1  0  0  0  0
 25 26  1  0  0  0  0
 25 27  2  0  0  0  0
  6 27  1  0  0  0  0
 27 28  1  0  0  0  0
  5 29  1  0  0  0  0
 29 30  1  0  0  0  0
 30 31  2  0  0  0  0
 30 32  1  0  0  0  0
 32 33  1  0  0  0  0
 33 34  1  0  0  0  0
 34 35  1  0  0  0  0
 35 36  2  0  0  0  0
 36 37  1  0  0  0  0
 36 38  1  0  0  0  0
 38 39  1  0  0  0  0
 38 40  2  0  0  0  0
 40 41  1  0  0  0  0
 40 42  1  0  0  0  0
 42 43  1  0  0  0  0
 42 44  2  0  0  0  0
 35 44  1  0  0  0  0
 44 45  1  0  0  0  0
 34 46  1  0  0  0  0
 34 47  1  0  0  0  0
 33 48  1  0  0  0  0
 33 49  1  0  0  0  0
 32 50  1  0  0  0  0
 29 51  1  0  0  0  0
 51 52  2  0  0  0  0
 52 53  1  0  0  0  0
 52 54  1  0  0  0  0
 54 55  2  0  0  0  0
 55 56  1  0  0  0  0
 55 57  1  0  0  0  0
 57 58  1  0  0  0  0
 57 59  2  0  0  0  0
 51 59  1  0  0  0  0
 59 60  1  0  0  0  0
 29 61  1  0  0  0  0
  2 62  1  0  0  0  0
  1 63  1  0  0  0  0
  1 64  1  0  0  0  0
M  END
> <Potency>
11.4797690157034

> <pIC50>
4.940066850284267

> <Outcome>
Inactive

> <is_active>
0

$$$$

  Mrv1921 08232120312D          

 67 69  0  0  0  0            999 V2000
    0.2700   -3.8782    0.0000 C   0  0  0  0  0  0  0  0  0  0  0  0
    0.5401   -3.0986    0.0000 C   0  0  0  0  0  0  0  0  0  0  0  0
    0.0000   -2.4750    0.0000 C   0  0  0  0  0  0  0  0  0  0  0  0
   -0.8101   -2.6309    0.0000 O   0  0  0  0  0  0  0  0  0  0  0  0
    0.2700   -1.6954    0.0000 N   0  0  0  0  0  0  0  0  0  0  0  0
   -0.2700   -1.0718    0.0000 C   0  0  0  0  0  0  0  0  0  0  0  0
   -1.0802   -1.2277    0.0000 C   0  0  0  0  0  0  0  0  0  0  0  0
   -1.3502   -2.0073    0.0000 H   0  0  0  0  0  0  0  0  0  0  0  0
   -1.6203   -0.6041    0.0000 C   0  0  0  0  0  0  0  0  0  0  0  0
   -2.4304   -0.7600    0.0000 H   0  0  0  0  0  0  0  0  0  0  0  0
   -1.3502    0.1755    0.0000 C   0  0  0  0  0  0  0  0  0  0  0  0
   -1.8903    0.7991    0.0000 C   0  0  0  0  0  0  0  0  0  0  0  0
   -2.4304    1.4228    0.0000 C   0  0  0  0  0  0  0  0  0  0  0  0
   -1.8068    1.9628    0.0000 H   0  0  0  0  0  0  0  0  0  0  0  0
   -2.9705    2.0464    0.0000 H   0  0  0  0  0  0  0  0  0  0  0  0
   -3.0540    0.8827    0.0000 H   0  0  0  0  0  0  0  0  0  0  0  0
   -2.5140    0.2590    0.0000 C   0  0  0  0  0  0  0  0  0  0  0  0
   -3.2968   -0.0013    0.0000 H   0  0  0  0  0  0  0  0  0  0  0  0
   -2.5730   -0.5639    0.0000 H   0  0  0  0  0  0  0  0  0  0  0  0
   -1.7763   -0.1105    0.0000 H   0  0  0  0  0  0  0  0  0  0  0  0
   -1.2667    1.3392    0.0000 C   0  0  0  0  0  0  0  0  0  0  0  0
   -1.0064    0.5564    0.0000 H   0  0  0  0  0  0  0  0  0  0  0  0
   -0.4438    1.2801    0.0000 H   0  0  0  0  0  0  0  0  0  0  0  0
   -0.8972    2.0768    0.0000 H   0  0  0  0  0  0  0  0  0  0  0  0
   -0.5401    0.3314    0.0000 C   0  0  0  0  0  0  0  0  0  0  0  0
    0.2465    0.5801    0.0000 H   0  0  0  0  0  0  0  0  0  0  0  0
    0.0000   -0.2923    0.0000 C   0  0  0  0  0  0  0  0  0  0  0  0
    0.5401   -0.9159    0.0000 H   0  0  0  0  0  0  0  0  0  0  0  0
    1.0802   -1.5395    0.0000 C   0  0  0  0  0  0  0  0  0  0  0  0
    1.6203   -2.1632    0.0000 C   0  0  0  0  0  0  0  0  0  0  0  0
    1.3502   -2.9427    0.0000 O   0  0  0  0  0  0  0  0  0  0  0  0
    2.4304   -2.0073    0.0000 N   0  0  0  0  0  0  0  0  0  0  0  0
    2.9705   -2.6309    0.0000 C   0  0  0  0  0  0  0  0  0  0  0  0
    3.7806   -2.4750    0.0000 C   0  0  0  0  0  0  0  0  0  0  0  0
    4.3207   -3.0986    0.0000 C   0  0  0  0  0  0  0  0  0  0  0  0
    5.1308   -2.9427    0.0000 C   0  0  0  0  0  0  0  0  0  0  0  0
    5.4009   -2.1632    0.0000 H   0  0  0  0  0  0  0  0  0  0  0  0
    5.6709   -3.5664    0.0000 C   0  0  0  0  0  0  0  0  0  0  0  0
    6.4811   -3.4105    0.0000 H   0  0  0  0  0  0  0  0  0  0  0  0
    5.4009   -4.3459    0.0000 C   0  0  0  0  0  0  0  0  0  0  0  0
    5.9410   -4.9696    0.0000 H   0  0  0  0  0  0  0  0  0  0  0  0
    4.5908   -4.5018    0.0000 C   0  0  0  0  0  0  0  0  0  0  0  0
    4.3207   -5.2814    0.0000 F   0  0  0  0  0  0  0  0  0  0  0  0
    4.0507   -3.8782    0.0000 C   0  0  0  0  0  0  0  0  0  0  0  0
    3.2405   -4.0341    0.0000 H   0  0  0  0  0  0  0  0  0  0  0  0
    4.3718   -1.8996    0.0000 H   0  0  0  0  0  0  0  0  0  0  0  0
    3.6721   -1.6572    0.0000 H   0  0  0  0  0  0  0  0  0  0  0  0
    2.3793   -3.2063    0.0000 H   0  0  0  0  0  0  0  0  0  0  0  0
    3.0790   -3.4487    0.0000 H   0  0  0  0  0  0  0  0  0  0  0  0
    3.0540   -1.4672    0.0000 H   0  0  0  0  0  0  0  0  0  0  0  0
    1.3502   -0.7600    0.0000 C   0  0  0  0  0  0  0  0  0  0  0  0
    0.8101   -0.1363    0.0000 C   0  0  0  0  0  0  0  0  0  0  0  0
    1.6203    0.0196    0.0000 H   0  0  0  0  0  0  0  0  0  0  0  0
    1.0802    0.6432    0.0000 N   0  0  0  0  0  0  0  0  0  0  0  0
    1.8903    0.7991    0.0000 C   0  0  0  0  0  0  0  0  0  0  0  0
    2.1604    1.5787    0.0000 H   0  0  0  0  0  0  0  0  0  0  0  0
    2.4304    0.1755    0.0000 C   0  0  0  0  0  0  0  0  0  0  0  0
    3.2405    0.3314    0.0000 C   0  0  0  0  0  0  0  0  0  0  0  0
    3.3964   -0.4787    0.0000 H   0  0  0  0  0  0  0  0  0  0  0  0
    4.0507    0.4873    0.0000 H   0  0  0  0  0  0  0  0  0  0  0  0
    3.0846    1.1415    0.0000 H   0  0  0  0  0  0  0  0  0  0  0  0
    2.1604   -0.6041    0.0000 C   0  0  0  0  0  0  0  0  0  0  0  0
    2.9399   -0.8741    0.0000 H   0  0  0  0  0  0  0  0  0  0  0  0
    1.8903   -1.3836    0.0000 H   0  0  0  0  0  0  0  0  0  0  0  0
    0.8101   -2.3191    0.0000 H   0  0  0  0  0  0  0  0  0  0  0  0
   -0.5401   -4.0341    0.0000 H   0  0  0  0  0  0  0  0  0  0  0  0
    0.8101   -4.5018    0.0000 H   0  0  0  0  0  0  0  0  0  0  0  0
  1  2  2  0  0  0  0
  2  3  1  0  0  0  0
  3  4  2  0  0  0  0
  3  5  1  0  0  0  0
  5  6  1  0  0  0  0
  6  7  2  0  0  0  0
  7  8  1  0  0  0  0
  7  9  1  0  0  0  0
  9 10  1  0  0  0  0
  9 11  2  0  0  0  0
 11 12  1  0  0  0  0
 12 13  1  0  0  0  0
 13 14  1  0  0  0  0
 13 15  1  0  0  0  0
 13 16  1  0  0  0  0
 12 17  1  0  0  0  0
 17 18  1  0  0  0  0
 17 19  1  0  0  0  0
 17 20  1  0  0  0  0
 12 21  1  0  0  0  0
 21 22  1  0  0  0  0
 21 23  1  0  0  0  0
 21 24  1  0  0  0  0
 11 25  1  0  0  0  0
 25 26  1  0  0  0  0
 25 27  2  0  0  0  0
  6 27  1  0  0  0  0
 27 28  1  0  0  0  0
  5 29  1  0  0  0  0
 29 30  1  0  0  0  0
 30 31  2  0  0  0  0
 30 32  1  0  0  0  0
 32 33  1  0  0  0  0
 33 34  1  0  0  0  0
 34 35  1  0  0  0  0
 35 36  2  0  0  0  0
 36 37  1  0  0  0  0
 36 38  1  0  0  0  0
 38 39  1  0  0  0  0
 38 40  2  0  0  0  0
 40 41  1  0  0  0  0
 40 42  1  0  0  0  0
 42 43  1  0  0  0  0
 42 44  2  0  0  0  0
 35 44  1  0  0  0  0
 44 45  1  0  0  0  0
 34 46  1  0  0  0  0
 34 47  1  0  0  0  0
 33 48  1  0  0  0  0
 33 49  1  0  0  0  0
 32 50  1  0  0  0  0
 29 51  1  0  0  0  0
 51 52  2  0  0  0  0
 52 53  1  0  0  0  0
 52 54  1  0  0  0  0
 54 55  2  0  0  0  0
 55 56  1  0  0  0  0
 55 57  1  0  0  0  0
 57 58  1  0  0  0  0
 58 59  1  0  0  0  0
 58 60  1  0  0  0  0
 58 61  1  0  0  0  0
 57 62  2  0  0  0  0
 51 62  1  0  0  0  0
 62 63  1  0  0  0  0
 29 64  1  0  0  0  0
  2 65  1  0  0  0  0
  1 66  1  0  0  0  0
  1 67  1  0  0  0  0
M  END
> <Potency>
11.6180539881968

> <pIC50>
4.934866609722289

> <Outcome>
Inactive

> <is_active>
0

$$$$

  Mrv1921 08232120312D          

 55 57  0  0  0  0            999 V2000
    0.2700   -3.8782    0.0000 C   0  0  0  0  0  0  0  0  0  0  0  0
    0.5401   -3.0986    0.0000 C   0  0  0  0  0  0  0  0  0  0  0  0
    0.0000   -2.4750    0.0000 C   0  0  0  0  0  0  0  0  0  0  0  0
   -0.8101   -2.6309    0.0000 O   0  0  0  0  0  0  0  0  0  0  0  0
    0.2700   -1.6954    0.0000 N   0  0  0  0  0  0  0  0  0  0  0  0
   -0.2700   -1.0718    0.0000 C   0  0  0  0  0  0  0  0  0  0  0  0
   -1.0802   -1.2277    0.0000 C   0  0  0  0  0  0  0  0  0  0  0  0
   -1.3502   -2.0073    0.0000 H   0  0  0  0  0  0  0  0  0  0  0  0
   -1.6203   -0.6041    0.0000 C   0  0  0  0  0  0  0  0  0  0  0  0
   -2.4304   -0.7600    0.0000 H   0  0  0  0  0  0  0  0  0  0  0  0
   -1.3502    0.1755    0.0000 C   0  0  0  0  0  0  0  0  0  0  0  0
   -1.8903    0.7991    0.0000 C   0  0  0  0  0  0  0  0  0  0  0  0
   -2.4304    1.4228    0.0000 F   0  0  0  0  0  0  0  0  0  0  0  0
   -2.5140    0.2590    0.0000 F   0  0  0  0  0  0  0  0  0  0  0  0
   -1.2667    1.3392    0.0000 F   0  0  0  0  0  0  0  0  0  0  0  0
   -0.5401    0.3314    0.0000 C   0  0  0  0  0  0  0  0  0  0  0  0
   -0.2700    1.1109    0.0000 H   0  0  0  0  0  0  0  0  0  0  0  0
    0.0000   -0.2923    0.0000 C   0  0  0  0  0  0  0  0  0  0  0  0
    0.5401   -0.9159    0.0000 H   0  0  0  0  0  0  0  0  0  0  0  0
    1.0802   -1.5395    0.0000 C   0  0  0  0  0  0  0  0  0  0  0  0
    1.6203   -2.1632    0.0000 C   0  0  0  0  0  0  0  0  0  0  0  0
    1.3502   -2.9427    0.0000 O   0  0  0  0  0  0  0  0  0  0  0  0
    2.4304   -2.0073    0.0000 N   0  0  0  0  0  0  0  0  0  0  0  0
    2.9705   -2.6309    0.0000 C   0  0  0  0  0  0  0  0  0  0  0  0
    3.7806   -2.4750    0.0000 C   0  0  0  0  0  0  0  0  0  0  0  0
    4.3207   -3.0986    0.0000 C   0  0  0  0  0  0  0  0  0  0  0  0
    5.1308   -2.9427    0.0000 C   0  0  0  0  0  0  0  0  0  0  0  0
    5.4009   -2.1632    0.0000 H   0  0  0  0  0  0  0  0  0  0  0  0
    5.6709   -3.5664    0.0000 C   0  0  0  0  0  0  0  0  0  0  0  0
    6.4811   -3.4105    0.0000 H   0  0  0  0  0  0  0  0  0  0  0  0
    5.4009   -4.3459    0.0000 C   0  0  0  0  0  0  0  0  0  0  0  0
    5.9410   -4.9696    0.0000 H   0  0  0  0  0  0  0  0  0  0  0  0
    4.5908   -4.5018    0.0000 C   0  0  0  0  0  0  0  0  0  0  0  0
    4.3207   -5.2814    0.0000 F   0  0  0  0  0  0  0  0  0  0  0  0
    4.0507   -3.8782    0.0000 C   0  0  0  0  0  0  0  0  0  0  0  0
    3.2405   -4.0341    0.0000 H   0  0  0  0  0  0  0  0  0  0  0  0
    4.3718   -1.8996    0.0000 H   0  0  0  0  0  0  0  0  0  0  0  0
    3.6721   -1.6572    0.0000 H   0  0  0  0  0  0  0  0  0  0  0  0
    2.3793   -3.2063    0.0000 H   0  0  0  0  0  0  0  0  0  0  0  0
    3.0790   -3.4487    0.0000 H   0  0  0  0  0  0  0  0  0  0  0  0
    3.0540   -1.4672    0.0000 H   0  0  0  0  0  0  0  0  0  0  0  0
    1.3502   -0.7600    0.0000 C   0  0  0  0  0  0  0  0  0  0  0  0
    0.8101   -0.1363    0.0000 C   0  0  0  0  0  0  0  0  0  0  0  0
    0.2700    0.4873    0.0000 H   0  0  0  0  0  0  0  0  0  0  0  0
    1.0802    0.6432    0.0000 N   0  0  0  0  0  0  0  0  0  0  0  0
    1.8903    0.7991    0.0000 C   0  0  0  0  0  0  0  0  0  0  0  0
    2.1604    1.5787    0.0000 H   0  0  0  0  0  0  0  0  0  0  0  0
    2.4304    0.1755    0.0000 C   0  0  0  0  0  0  0  0  0  0  0  0
    3.2405    0.3314    0.0000 Cl  0  0  0  0  0  0  0  0  0  0  0  0
    2.1604   -0.6041    0.0000 C   0  0  0  0  0  0  0  0  0  0  0  0
    2.9399   -0.8741    0.0000 H   0  0  0  0  0  0  0  0  0  0  0  0
    1.8903   -1.3836    0.0000 H   0  0  0  0  0  0  0  0  0  0  0  0
    0.8101   -2.3191    0.0000 H   0  0  0  0  0  0  0  0  0  0  0  0
   -0.5401   -4.0341    0.0000 H   0  0  0  0  0  0  0  0  0  0  0  0
    0.8101   -4.5018    0.0000 H   0  0  0  0  0  0  0  0  0  0  0  0
  1  2  2  0  0  0  0
  2  3  1  0  0  0  0
  3  4  2  0  0  0  0
  3  5  1  0  0  0  0
  5  6  1  0  0  0  0
  6  7  2  0  0  0  0
  7  8  1  0  0  0  0
  7  9  1  0  0  0  0
  9 10  1  0  0  0  0
  9 11  2  0  0  0  0
 11 12  1  0  0  0  0
 12 13  1  0  0  0  0
 12 14  1  0  0  0  0
 12 15  1  0  0  0  0
 11 16  1  0  0  0  0
 16 17  1  0  0  0  0
 16 18  2  0  0  0  0
  6 18  1  0  0  0  0
 18 19  1  0  0  0  0
  5 20  1  0  0  0  0
 20 21  1  0  0  0  0
 21 22  2  0  0  0  0
 21 23  1  0  0  0  0
 23 24  1  0  0  0  0
 24 25  1  0  0  0  0
 25 26  1  0  0  0  0
 26 27  2  0  0  0  0
 27 28  1  0  0  0  0
 27 29  1  0  0  0  0
 29 30  1  0  0  0  0
 29 31  2  0  0  0  0
 31 32  1  0  0  0  0
 31 33  1  0  0  0  0
 33 34  1  0  0  0  0
 33 35  2  0  0  0  0
 26 35  1  0  0  0  0
 35 36  1  0  0  0  0
 25 37  1  0  0  0  0
 25 38  1  0  0  0  0
 24 39  1  0  0  0  0
 24 40  1  0  0  0  0
 23 41  1  0  0  0  0
 20 42  1  0  0  0  0
 42 43  2  0  0  0  0
 43 44  1  0  0  0  0
 43 45  1  0  0  0  0
 45 46  2  0  0  0  0
 46 47  1  0  0  0  0
 46 48  1  0  0  0  0
 48 49  1  0  0  0  0
 48 50  2  0  0  0  0
 42 50  1  0  0  0  0
 50 51  1  0  0  0  0
 20 52  1  0  0  0  0
  2 53  1  0  0  0  0
  1 54  1  0  0  0  0
  1 55  1  0  0  0  0
M  END
> <Potency>
23.9215056444618

> <pIC50>
4.621211488876658

> <Outcome>
Inactive

> <is_active>
0

$$$$

  Mrv1921 08232120312D          

 58 60  0  0  0  0            999 V2000
    0.2700   -3.8782    0.0000 C   0  0  0  0  0  0  0  0  0  0  0  0
    0.5401   -3.0986    0.0000 C   0  0  0  0  0  0  0  0  0  0  0  0
    0.0000   -2.4750    0.0000 C   0  0  0  0  0  0  0  0  0  0  0  0
   -0.8101   -2.6309    0.0000 O   0  0  0  0  0  0  0  0  0  0  0  0
    0.2700   -1.6954    0.0000 N   0  0  0  0  0  0  0  0  0  0  0  0
   -0.2700   -1.0718    0.0000 C   0  0  0  0  0  0  0  0  0  0  0  0
   -1.0802   -1.2277    0.0000 C   0  0  0  0  0  0  0  0  0  0  0  0
   -1.3502   -2.0073    0.0000 H   0  0  0  0  0  0  0  0  0  0  0  0
   -1.6203   -0.6041    0.0000 C   0  0  0  0  0  0  0  0  0  0  0  0
   -2.4304   -0.7600    0.0000 H   0  0  0  0  0  0  0  0  0  0  0  0
   -1.3502    0.1755    0.0000 C   0  0  0  0  0  0  0  0  0  0  0  0
   -1.8903    0.7991    0.0000 C   0  0  0  0  0  0  0  0  0  0  0  0
   -2.4304    1.4228    0.0000 F   0  0  0  0  0  0  0  0  0  0  0  0
   -2.5140    0.2590    0.0000 F   0  0  0  0  0  0  0  0  0  0  0  0
   -1.2667    1.3392    0.0000 F   0  0  0  0  0  0  0  0  0  0  0  0
   -0.5401    0.3314    0.0000 C   0  0  0  0  0  0  0  0  0  0  0  0
   -0.2700    1.1109    0.0000 H   0  0  0  0  0  0  0  0  0  0  0  0
    0.0000   -0.2923    0.0000 C   0  0  0  0  0  0  0  0  0  0  0  0
    0.5401   -0.9159    0.0000 H   0  0  0  0  0  0  0  0  0  0  0  0
    1.0802   -1.5395    0.0000 C   0  0  0  0  0  0  0  0  0  0  0  0
    1.6203   -2.1632    0.0000 C   0  0  0  0  0  0  0  0  0  0  0  0
    1.3502   -2.9427    0.0000 O   0  0  0  0  0  0  0  0  0  0  0  0
    2.4304   -2.0073    0.0000 N   0  0  0  0  0  0  0  0  0  0  0  0
    2.9705   -2.6309    0.0000 C   0  0  0  0  0  0  0  0  0  0  0  0
    3.7806   -2.4750    0.0000 C   0  0  0  0  0  0  0  0  0  0  0  0
    4.3207   -3.0986    0.0000 C   0  0  0  0  0  0  0  0  0  0  0  0
    5.1308   -2.9427    0.0000 C   0  0  0  0  0  0  0  0  0  0  0  0
    5.4009   -2.1632    0.0000 H   0  0  0  0  0  0  0  0  0  0  0  0
    5.6709   -3.5664    0.0000 C   0  0  0  0  0  0  0  0  0  0  0  0
    6.4811   -3.4105    0.0000 H   0  0  0  0  0  0  0  0  0  0  0  0
    5.4009   -4.3459    0.0000 C   0  0  0  0  0  0  0  0  0  0  0  0
    5.9410   -4.9696    0.0000 H   0  0  0  0  0  0  0  0  0  0  0  0
    4.5908   -4.5018    0.0000 C   0  0  0  0  0  0  0  0  0  0  0  0
    4.3207   -5.2814    0.0000 F   0  0  0  0  0  0  0  0  0  0  0  0
    4.0507   -3.8782    0.0000 C   0  0  0  0  0  0  0  0  0  0  0  0
    3.2405   -4.0341    0.0000 H   0  0  0  0  0  0  0  0  0  0  0  0
    4.3718   -1.8996    0.0000 H   0  0  0  0  0  0  0  0  0  0  0  0
    3.6721   -1.6572    0.0000 H   0  0  0  0  0  0  0  0  0  0  0  0
    2.3793   -3.2063    0.0000 H   0  0  0  0  0  0  0  0  0  0  0  0
    3.0790   -3.4487    0.0000 H   0  0  0  0  0  0  0  0  0  0  0  0
    3.0540   -1.4672    0.0000 H   0  0  0  0  0  0  0  0  0  0  0  0
    1.3502   -0.7600    0.0000 C   0  0  0  0  0  0  0  0  0  0  0  0
    0.8101   -0.1363    0.0000 C   0  0  0  0  0  0  0  0  0  0  0  0
    0.2700    0.4873    0.0000 H   0  0  0  0  0  0  0  0  0  0  0  0
    1.0802    0.6432    0.0000 N   0  0  0  0  0  0  0  0  0  0  0  0
    1.8903    0.7991    0.0000 C   0  0  0  0  0  0  0  0  0  0  0  0
    2.1604    1.5787    0.0000 H   0  0  0  0  0  0  0  0  0  0  0  0
    2.4304    0.1755    0.0000 C   0  0  0  0  0  0  0  0  0  0  0  0
    3.2405    0.3314    0.0000 C   0  0  0  0  0  0  0  0  0  0  0  0
    3.3964   -0.4787    0.0000 H   0  0  0  0  0  0  0  0  0  0  0  0
    4.0507    0.4873    0.0000 H   0  0  0  0  0  0  0  0  0  0  0  0
    3.0846    1.1415    0.0000 H   0  0  0  0  0  0  0  0  0  0  0  0
    2.1604   -0.6041    0.0000 C   0  0  0  0  0  0  0  0  0  0  0  0
    2.9399   -0.8741    0.0000 H   0  0  0  0  0  0  0  0  0  0  0  0
    1.8903   -1.3836    0.0000 H   0  0  0  0  0  0  0  0  0  0  0  0
    0.8101   -2.3191    0.0000 H   0  0  0  0  0  0  0  0  0  0  0  0
   -0.5401   -4.0341    0.0000 H   0  0  0  0  0  0  0  0  0  0  0  0
    0.8101   -4.5018    0.0000 H   0  0  0  0  0  0  0  0  0  0  0  0
  1  2  2  0  0  0  0
  2  3  1  0  0  0  0
  3  4  2  0  0  0  0
  3  5  1  0  0  0  0
  5  6  1  0  0  0  0
  6  7  2  0  0  0  0
  7  8  1  0  0  0  0
  7  9  1  0  0  0  0
  9 10  1  0  0  0  0
  9 11  2  0  0  0  0
 11 12  1  0  0  0  0
 12 13  1  0  0  0  0
 12 14  1  0  0  0  0
 12 15  1  0  0  0  0
 11 16  1  0  0  0  0
 16 17  1  0  0  0  0
 16 18  2  0  0  0  0
  6 18  1  0  0  0  0
 18 19  1  0  0  0  0
  5 20  1  0  0  0  0
 20 21  1  0  0  0  0
 21 22  2  0  0  0  0
 21 23  1  0  0  0  0
 23 24  1  0  0  0  0
 24 25  1  0  0  0  0
 25 26  1  0  0  0  0
 26 27  2  0  0  0  0
 27 28  1  0  0  0  0
 27 29  1  0  0  0  0
 29 30  1  0  0  0  0
 29 31  2  0  0  0  0
 31 32  1  0  0  0  0
 31 33  1  0  0  0  0
 33 34  1  0  0  0  0
 33 35  2  0  0  0  0
 26 35  1  0  0  0  0
 35 36  1  0  0  0  0
 25 37  1  0  0  0  0
 25 38  1  0  0  0  0
 24 39  1  0  0  0  0
 24 40  1  0  0  0  0
 23 41  1  0  0  0  0
 20 42  1  0  0  0  0
 42 43  2  0  0  0  0
 43 44  1  0  0  0  0
 43 45  1  0  0  0  0
 45 46  2  0  0  0  0
 46 47  1  0  0  0  0
 46 48  1  0  0  0  0
 48 49  1  0  0  0  0
 49 50  1  0  0  0  0
 49 51  1  0  0  0  0
 49 52  1  0  0  0  0
 48 53  2  0  0  0  0
 42 53  1  0  0  0  0
 53 54  1  0  0  0  0
 20 55  1  0  0  0  0
  2 56  1  0  0  0  0
  1 57  1  0  0  0  0
  1 58  1  0  0  0  0
M  END
> <Potency>
24.3092059734736

> <pIC50>
4.614229226552416

> <Outcome>
Inactive

> <is_active>
0

$$$$

  Mrv1921 08232120312D          

 56 58  0  0  0  0            999 V2000
    0.2700   -3.8782    0.0000 C   0  0  0  0  0  0  0  0  0  0  0  0
    0.5401   -3.0986    0.0000 C   0  0  0  0  0  0  0  0  0  0  0  0
    0.0000   -2.4750    0.0000 C   0  0  0  0  0  0  0  0  0  0  0  0
   -0.8101   -2.6309    0.0000 O   0  0  0  0  0  0  0  0  0  0  0  0
    0.2700   -1.6954    0.0000 N   0  0  0  0  0  0  0  0  0  0  0  0
   -0.2700   -1.0718    0.0000 C   0  0  0  0  0  0  0  0  0  0  0  0
   -1.0802   -1.2277    0.0000 C   0  0  0  0  0  0  0  0  0  0  0  0
   -1.3502   -2.0073    0.0000 H   0  0  0  0  0  0  0  0  0  0  0  0
   -1.6203   -0.6041    0.0000 C   0  0  0  0  0  0  0  0  0  0  0  0
   -2.4304   -0.7600    0.0000 H   0  0  0  0  0  0  0  0  0  0  0  0
   -1.3502    0.1755    0.0000 C   0  0  0  0  0  0  0  0  0  0  0  0
   -1.8903    0.7991    0.0000 C   0  0  0  0  0  0  0  0  0  0  0  0
   -2.4304    1.4228    0.0000 F   0  0  0  0  0  0  0  0  0  0  0  0
   -2.5140    0.2590    0.0000 F   0  0  0  0  0  0  0  0  0  0  0  0
   -1.2667    1.3392    0.0000 F   0  0  0  0  0  0  0  0  0  0  0  0
   -0.5401    0.3314    0.0000 C   0  0  0  0  0  0  0  0  0  0  0  0
   -0.2700    1.1109    0.0000 H   0  0  0  0  0  0  0  0  0  0  0  0
    0.0000   -0.2923    0.0000 C   0  0  0  0  0  0  0  0  0  0  0  0
    0.5401   -0.9159    0.0000 H   0  0  0  0  0  0  0  0  0  0  0  0
    1.0802   -1.5395    0.0000 C   0  0  0  0  0  0  0  0  0  0  0  0
    1.6203   -2.1632    0.0000 C   0  0  0  0  0  0  0  0  0  0  0  0
    1.3502   -2.9427    0.0000 O   0  0  0  0  0  0  0  0  0  0  0  0
    2.4304   -2.0073    0.0000 N   0  0  0  0  0  0  0  0  0  0  0  0
    2.9705   -2.6309    0.0000 C   0  0  0  0  0  0  0  0  0  0  0  0
    3.7806   -2.4750    0.0000 C   0  0  0  0  0  0  0  0  0  0  0  0
    4.3207   -3.0986    0.0000 C   0  0  0  0  0  0  0  0  0  0  0  0
    5.1308   -2.9427    0.0000 C   0  0  0  0  0  0  0  0  0  0  0  0
    5.4009   -2.1632    0.0000 H   0  0  0  0  0  0  0  0  0  0  0  0
    5.6709   -3.5664    0.0000 C   0  0  0  0  0  0  0  0  0  0  0  0
    6.4811   -3.4105    0.0000 H   0  0  0  0  0  0  0  0  0  0  0  0
    5.4009   -4.3459    0.0000 C   0  0  0  0  0  0  0  0  0  0  0  0
    5.9410   -4.9696    0.0000 H   0  0  0  0  0  0  0  0  0  0  0  0
    4.5908   -4.5018    0.0000 C   0  0  0  0  0  0  0  0  0  0  0  0
    4.3207   -5.2814    0.0000 F   0  0  0  0  0  0  0  0  0  0  0  0
    4.0507   -3.8782    0.0000 C   0  0  0  0  0  0  0  0  0  0  0  0
    3.2405   -4.0341    0.0000 H   0  0  0  0  0  0  0  0  0  0  0  0
    4.3718   -1.8996    0.0000 H   0  0  0  0  0  0  0  0  0  0  0  0
    3.6721   -1.6572    0.0000 H   0  0  0  0  0  0  0  0  0  0  0  0
    2.3793   -3.2063    0.0000 H   0  0  0  0  0  0  0  0  0  0  0  0
    3.0790   -3.4487    0.0000 H   0  0  0  0  0  0  0  0  0  0  0  0
    3.0540   -1.4672    0.0000 H   0  0  0  0  0  0  0  0  0  0  0  0
    1.3502   -0.7600    0.0000 C   0  0  0  0  0  0  0  0  0  0  0  0
    0.8101   -0.1363    0.0000 C   0  0  0  0  0  0  0  0  0  0  0  0
    0.2700    0.4873    0.0000 H   0  0  0  0  0  0  0  0  0  0  0  0
    1.0802    0.6432    0.0000 N   0  0  0  0  0  0  0  0  0  0  0  0
    1.8903    0.7991    0.0000 C   0  0  0  0  0  0  0  0  0  0  0  0
    2.1604    1.5787    0.0000 H   0  0  0  0  0  0  0  0  0  0  0  0
    2.4304    0.1755    0.0000 C   0  0  0  0  0  0  0  0  0  0  0  0
    3.2405    0.3314    0.0000 C   0  0  0  0  0  0  0  0  0  0  0  0
    4.0507    0.4873    0.0000 N   0  0  0  0  0  0  0  0  0  0  0  0
    2.1604   -0.6041    0.0000 C   0  0  0  0  0  0  0  0  0  0  0  0
    2.9399   -0.8741    0.0000 H   0  0  0  0  0  0  0  0  0  0  0  0
    1.8903   -1.3836    0.0000 H   0  0  0  0  0  0  0  0  0  0  0  0
    0.8101   -2.3191    0.0000 H   0  0  0  0  0  0  0  0  0  0  0  0
   -0.5401   -4.0341    0.0000 H   0  0  0  0  0  0  0  0  0  0  0  0
    0.8101   -4.5018    0.0000 H   0  0  0  0  0  0  0  0  0  0  0  0
  1  2  2  0  0  0  0
  2  3  1  0  0  0  0
  3  4  2  0  0  0  0
  3  5  1  0  0  0  0
  5  6  1  0  0  0  0
  6  7  2  0  0  0  0
  7  8  1  0  0  0  0
  7  9  1  0  0  0  0
  9 10  1  0  0  0  0
  9 11  2  0  0  0  0
 11 12  1  0  0  0  0
 12 13  1  0  0  0  0
 12 14  1  0  0  0  0
 12 15  1  0  0  0  0
 11 16  1  0  0  0  0
 16 17  1  0  0  0  0
 16 18  2  0  0  0  0
  6 18  1  0  0  0  0
 18 19  1  0  0  0  0
  5 20  1  0  0  0  0
 20 21  1  0  0  0  0
 21 22  2  0  0  0  0
 21 23  1  0  0  0  0
 23 24  1  0  0  0  0
 24 25  1  0  0  0  0
 25 26  1  0  0  0  0
 26 27  2  0  0  0  0
 27 28  1  0  0  0  0
 27 29  1  0  0  0  0
 29 30  1  0  0  0  0
 29 31  2  0  0  0  0
 31 32  1  0  0  0  0
 31 33  1  0  0  0  0
 33 34  1  0  0  0  0
 33 35  2  0  0  0  0
 26 35  1  0  0  0  0
 35 36  1  0  0  0  0
 25 37  1  0  0  0  0
 25 38  1  0  0  0  0
 24 39  1  0  0  0  0
 24 40  1  0  0  0  0
 23 41  1  0  0  0  0
 20 42  1  0  0  0  0
 42 43  2  0  0  0  0
 43 44  1  0  0  0  0
 43 45  1  0  0  0  0
 45 46  2  0  0  0  0
 46 47  1  0  0  0  0
 46 48  1  0  0  0  0
 48 49  1  0  0  0  0
 49 50  3  0  0  0  0
 48 51  2  0  0  0  0
 42 51  1  0  0  0  0
 51 52  1  0  0  0  0
 20 53  1  0  0  0  0
  2 54  1  0  0  0  0
  1 55  1  0  0  0  0
  1 56  1  0  0  0  0
M  END
> <Potency>
11.1257312439675

> <pIC50>
4.953671435197961

> <Outcome>
Inactive

> <is_active>
0

$$$$

  Mrv1921 08232120312D          

 55 57  0  0  0  0            999 V2000
    0.2700   -3.8782    0.0000 C   0  0  0  0  0  0  0  0  0  0  0  0
    0.5401   -3.0986    0.0000 C   0  0  0  0  0  0  0  0  0  0  0  0
    0.0000   -2.4750    0.0000 C   0  0  0  0  0  0  0  0  0  0  0  0
   -0.8101   -2.6309    0.0000 O   0  0  0  0  0  0  0  0  0  0  0  0
    0.2700   -1.6954    0.0000 N   0  0  0  0  0  0  0  0  0  0  0  0
   -0.2700   -1.0718    0.0000 C   0  0  0  0  0  0  0  0  0  0  0  0
   -1.0802   -1.2277    0.0000 C   0  0  0  0  0  0  0  0  0  0  0  0
   -1.3502   -2.0073    0.0000 H   0  0  0  0  0  0  0  0  0  0  0  0
   -1.6203   -0.6041    0.0000 C   0  0  0  0  0  0  0  0  0  0  0  0
   -2.4304   -0.7600    0.0000 H   0  0  0  0  0  0  0  0  0  0  0  0
   -1.3502    0.1755    0.0000 C   0  0  0  0  0  0  0  0  0  0  0  0
   -1.8903    0.7991    0.0000 C   0  0  0  0  0  0  0  0  0  0  0  0
   -2.4304    1.4228    0.0000 F   0  0  0  0  0  0  0  0  0  0  0  0
   -2.5140    0.2590    0.0000 F   0  0  0  0  0  0  0  0  0  0  0  0
   -1.2667    1.3392    0.0000 F   0  0  0  0  0  0  0  0  0  0  0  0
   -0.5401    0.3314    0.0000 C   0  0  0  0  0  0  0  0  0  0  0  0
   -0.2700    1.1109    0.0000 H   0  0  0  0  0  0  0  0  0  0  0  0
    0.0000   -0.2923    0.0000 C   0  0  0  0  0  0  0  0  0  0  0  0
    0.5401   -0.9159    0.0000 H   0  0  0  0  0  0  0  0  0  0  0  0
    1.0802   -1.5395    0.0000 C   0  0  0  0  0  0  0  0  0  0  0  0
    1.6203   -2.1632    0.0000 C   0  0  0  0  0  0  0  0  0  0  0  0
    1.3502   -2.9427    0.0000 O   0  0  0  0  0  0  0  0  0  0  0  0
    2.4304   -2.0073    0.0000 N   0  0  0  0  0  0  0  0  0  0  0  0
    2.9705   -2.6309    0.0000 C   0  0  0  0  0  0  0  0  0  0  0  0
    3.7806   -2.4750    0.0000 C   0  0  0  0  0  0  0  0  0  0  0  0
    4.3207   -3.0986    0.0000 C   0  0  0  0  0  0  0  0  0  0  0  0
    5.1308   -2.9427    0.0000 C   0  0  0  0  0  0  0  0  0  0  0  0
    5.4009   -2.1632    0.0000 H   0  0  0  0  0  0  0  0  0  0  0  0
    5.6709   -3.5664    0.0000 C   0  0  0  0  0  0  0  0  0  0  0  0
    6.4811   -3.4105    0.0000 H   0  0  0  0  0  0  0  0  0  0  0  0
    5.4009   -4.3459    0.0000 C   0  0  0  0  0  0  0  0  0  0  0  0
    5.9410   -4.9696    0.0000 H   0  0  0  0  0  0  0  0  0  0  0  0
    4.5908   -4.5018    0.0000 C   0  0  0  0  0  0  0  0  0  0  0  0
    4.3207   -5.2814    0.0000 F   0  0  0  0  0  0  0  0  0  0  0  0
    4.0507   -3.8782    0.0000 C   0  0  0  0  0  0  0  0  0  0  0  0
    3.2405   -4.0341    0.0000 H   0  0  0  0  0  0  0  0  0  0  0  0
    4.3718   -1.8996    0.0000 H   0  0  0  0  0  0  0  0  0  0  0  0
    3.6721   -1.6572    0.0000 H   0  0  0  0  0  0  0  0  0  0  0  0
    2.3793   -3.2063    0.0000 H   0  0  0  0  0  0  0  0  0  0  0  0
    3.0790   -3.4487    0.0000 H   0  0  0  0  0  0  0  0  0  0  0  0
    3.0540   -1.4672    0.0000 H   0  0  0  0  0  0  0  0  0  0  0  0
    1.3502   -0.7600    0.0000 C   0  0  0  0  0  0  0  0  0  0  0  0
    0.8101   -0.1363    0.0000 C   0  0  0  0  0  0  0  0  0  0  0  0
    0.2700    0.4873    0.0000 H   0  0  0  0  0  0  0  0  0  0  0  0
    1.0802    0.6432    0.0000 C   0  0  0  0  0  0  0  0  0  0  0  0
    0.9243    1.4533    0.0000 H   0  0  0  0  0  0  0  0  0  0  0  0
    1.8903    0.7991    0.0000 C   0  0  0  0  0  0  0  0  0  0  0  0
    2.1604    1.5787    0.0000 H   0  0  0  0  0  0  0  0  0  0  0  0
    2.4304    0.1755    0.0000 N   0  0  0  0  0  0  0  0  0  0  0  0
    2.1604   -0.6041    0.0000 C   0  0  0  0  0  0  0  0  0  0  0  0
    2.9399   -0.8741    0.0000 H   0  0  0  0  0  0  0  0  0  0  0  0
    1.8903   -1.3836    0.0000 H   0  0  0  0  0  0  0  0  0  0  0  0
    0.8101   -2.3191    0.0000 H   0  0  0  0  0  0  0  0  0  0  0  0
   -0.5401   -4.0341    0.0000 H   0  0  0  0  0  0  0  0  0  0  0  0
    0.8101   -4.5018    0.0000 H   0  0  0  0  0  0  0  0  0  0  0  0
  1  2  2  0  0  0  0
  2  3  1  0  0  0  0
  3  4  2  0  0  0  0
  3  5  1  0  0  0  0
  5  6  1  0  0  0  0
  6  7  2  0  0  0  0
  7  8  1  0  0  0  0
  7  9  1  0  0  0  0
  9 10  1  0  0  0  0
  9 11  2  0  0  0  0
 11 12  1  0  0  0  0
 12 13  1  0  0  0  0
 12 14  1  0  0  0  0
 12 15  1  0  0  0  0
 11 16  1  0  0  0  0
 16 17  1  0  0  0  0
 16 18  2  0  0  0  0
  6 18  1  0  0  0  0
 18 19  1  0  0  0  0
  5 20  1  0  0  0  0
 20 21  1  0  0  0  0
 21 22  2  0  0  0  0
 21 23  1  0  0  0  0
 23 24  1  0  0  0  0
 24 25  1  0  0  0  0
 25 26  1  0  0  0  0
 26 27  2  0  0  0  0
 27 28  1  0  0  0  0
 27 29  1  0  0  0  0
 29 30  1  0  0  0  0
 29 31  2  0  0  0  0
 31 32  1  0  0  0  0
 31 33  1  0  0  0  0
 33 34  1  0  0  0  0
 33 35  2  0  0  0  0
 26 35  1  0  0  0  0
 35 36  1  0  0  0  0
 25 37  1  0  0  0  0
 25 38  1  0  0  0  0
 24 39  1  0  0  0  0
 24 40  1  0  0  0  0
 23 41  1  0  0  0  0
 20 42  1  0  0  0  0
 42 43  2  0  0  0  0
 43 44  1  0  0  0  0
 43 45  1  0  0  0  0
 45 46  1  0  0  0  0
 45 47  2  0  0  0  0
 47 48  1  0  0  0  0
 47 49  1  0  0  0  0
 49 50  2  0  0  0  0
 42 50  1  0  0  0  0
 50 51  1  0  0  0  0
 20 52  1  0  0  0  0
  2 53  1  0  0  0  0
  1 54  1  0  0  0  0
  1 55  1  0  0  0  0
M  END
> <Potency>
20.1202664368014

> <pIC50>
4.696366272559128

> <Outcome>
Inactive

> <is_active>
0

$$$$

  Mrv1921 08232120312D          

 31 32  0  0  0  0            999 V2000
    2.1434   -0.4125    0.0000 O   0  0  0  0  0  0  0  0  0  0  0  0
    2.1434   -1.2375    0.0000 C   0  0  0  0  0  0  0  0  0  0  0  0
    1.4289   -1.6500    0.0000 C   0  0  0  0  0  0  0  0  0  0  0  0
    1.4289   -2.4750    0.0000 C   0  0  0  0  0  0  0  0  0  0  0  0
    2.1434   -2.8875    0.0000 C   0  0  0  0  0  0  0  0  0  0  0  0
    2.8579   -2.4750    0.0000 H   0  0  0  0  0  0  0  0  0  0  0  0
    2.1434   -3.7125    0.0000 C   0  0  0  0  0  0  0  0  0  0  0  0
    2.8579   -4.1250    0.0000 H   0  0  0  0  0  0  0  0  0  0  0  0
    1.4289   -4.1250    0.0000 C   0  0  0  0  0  0  0  0  0  0  0  0
    1.4289   -4.9500    0.0000 H   0  0  0  0  0  0  0  0  0  0  0  0
    0.7145   -3.7125    0.0000 C   0  0  0  0  0  0  0  0  0  0  0  0
    0.0000   -4.1250    0.0000 Cl  0  0  0  0  0  0  0  0  0  0  0  0
    0.7145   -2.8875    0.0000 C   0  0  0  0  0  0  0  0  0  0  0  0
    0.0000   -2.4750    0.0000 H   0  0  0  0  0  0  0  0  0  0  0  0
    0.9756   -0.9607    0.0000 H   0  0  0  0  0  0  0  0  0  0  0  0
    0.6053   -1.6020    0.0000 H   0  0  0  0  0  0  0  0  0  0  0  0
    2.8579   -1.6500    0.0000 N   0  0  0  0  0  0  0  0  0  0  0  0
    3.5724   -1.2375    0.0000 C   0  0  0  0  0  0  0  0  0  0  0  0
    3.5724   -0.4125    0.0000 C   0  0  0  0  0  0  0  0  0  0  0  0
    2.8579    0.0000    0.0000 H   0  0  0  0  0  0  0  0  0  0  0  0
    4.2868   -0.0000    0.0000 N   0  0  0  0  0  0  0  0  0  0  0  0
    5.0013   -0.4125    0.0000 C   0  0  0  0  0  0  0  0  0  0  0  0
    5.7158   -0.0000    0.0000 H   0  0  0  0  0  0  0  0  0  0  0  0
    5.0013   -1.2375    0.0000 C   0  0  0  0  0  0  0  0  0  0  0  0
    5.7158   -1.6500    0.0000 H   0  0  0  0  0  0  0  0  0  0  0  0
    4.2868   -1.6500    0.0000 C   0  0  0  0  0  0  0  0  0  0  0  0
    4.2868   -2.4750    0.0000 C   0  0  0  0  0  0  0  0  0  0  0  0
    4.2868   -3.3000    0.0000 F   0  0  0  0  0  0  0  0  0  0  0  0
    3.4618   -2.4750    0.0000 F   0  0  0  0  0  0  0  0  0  0  0  0
    5.1118   -2.4750    0.0000 F   0  0  0  0  0  0  0  0  0  0  0  0
    2.1434   -2.0625    0.0000 H   0  0  0  0  0  0  0  0  0  0  0  0
  1  2  2  0  0  0  0
  2  3  1  0  0  0  0
  3  4  1  0  0  0  0
  4  5  2  0  0  0  0
  5  6  1  0  0  0  0
  5  7  1  0  0  0  0
  7  8  1  0  0  0  0
  7  9  2  0  0  0  0
  9 10  1  0  0  0  0
  9 11  1  0  0  0  0
 11 12  1  0  0  0  0
 11 13  2  0  0  0  0
  4 13  1  0  0  0  0
 13 14  1  0  0  0  0
  3 15  1  0  0  0  0
  3 16  1  0  0  0  0
  2 17  1  0  0  0  0
 17 18  1  0  0  0  0
 18 19  2  0  0  0  0
 19 20  1  0  0  0  0
 19 21  1  0  0  0  0
 21 22  2  0  0  0  0
 22 23  1  0  0  0  0
 22 24  1  0  0  0  0
 24 25  1  0  0  0  0
 24 26  2  0  0  0  0
 18 26  1  0  0  0  0
 26 27  1  0  0  0  0
 27 28  1  0  0  0  0
 27 29  1  0  0  0  0
 27 30  1  0  0  0  0
 17 31  1  0  0  0  0
M  END
> <Potency>
18.1606601875142

> <pIC50>
4.740868367787238

> <Outcome>
Inactive

> <is_active>
0

$$$$

  Mrv1921 08232120312D          

 62 66  0  0  0  0            999 V2000
    4.7812    1.9354    0.0000 C   0  0  0  0  0  0  0  0  0  0  0  0
    4.0668    2.3479    0.0000 O   0  0  0  0  0  0  0  0  0  0  0  0
    3.3523    1.9354    0.0000 C   0  0  0  0  0  0  0  0  0  0  0  0
    3.3523    1.1104    0.0000 C   0  0  0  0  0  0  0  0  0  0  0  0
    4.0668    0.6979    0.0000 H   0  0  0  0  0  0  0  0  0  0  0  0
    2.6378    0.6979    0.0000 C   0  0  0  0  0  0  0  0  0  0  0  0
    2.6378   -0.1271    0.0000 H   0  0  0  0  0  0  0  0  0  0  0  0
    1.9233    1.1104    0.0000 C   0  0  0  0  0  0  0  0  0  0  0  0
    1.1387    0.8555    0.0000 N   0  0  0  0  0  0  0  0  0  0  0  0
    0.6538    1.5229    0.0000 N   0  0  0  0  0  0  0  0  0  0  0  0
    1.1387    2.1904    0.0000 N   0  0  0  0  0  0  0  0  0  0  0  0
    0.8838    2.9750    0.0000 C   0  0  0  0  0  0  0  0  0  0  0  0
    1.4358    3.5881    0.0000 C   0  0  0  0  0  0  0  0  0  0  0  0
    2.2428    3.4166    0.0000 O   0  0  0  0  0  0  0  0  0  0  0  0
    1.1809    4.3727    0.0000 N   0  0  0  0  0  0  0  0  0  0  0  0
    0.3739    4.5442    0.0000 C   0  0  0  0  0  0  0  0  0  0  0  0
    0.1190    5.3289    0.0000 C   0  0  0  0  0  0  0  0  0  0  0  0
   -0.6880    5.5004    0.0000 C   0  0  0  0  0  0  0  0  0  0  0  0
   -1.2400    4.8873    0.0000 H   0  0  0  0  0  0  0  0  0  0  0  0
   -0.9429    6.2850    0.0000 C   0  0  0  0  0  0  0  0  0  0  0  0
   -1.7499    6.4565    0.0000 H   0  0  0  0  0  0  0  0  0  0  0  0
   -0.3909    6.8981    0.0000 C   0  0  0  0  0  0  0  0  0  0  0  0
   -0.6459    7.6827    0.0000 H   0  0  0  0  0  0  0  0  0  0  0  0
    0.4161    6.7266    0.0000 C   0  0  0  0  0  0  0  0  0  0  0  0
    0.9681    7.3397    0.0000 H   0  0  0  0  0  0  0  0  0  0  0  0
    0.6710    5.9420    0.0000 N   0  0  0  0  0  0  0  0  0  0  0  0
   -0.3946    4.2441    0.0000 H   0  0  0  0  0  0  0  0  0  0  0  0
    0.1557    3.7486    0.0000 H   0  0  0  0  0  0  0  0  0  0  0  0
    1.7329    4.9858    0.0000 C   0  0  0  0  0  0  0  0  0  0  0  0
    1.4780    5.7704    0.0000 C   0  0  0  0  0  0  0  0  0  0  0  0
    0.9259    5.1573    0.0000 H   0  0  0  0  0  0  0  0  0  0  0  0
    2.0300    6.3835    0.0000 C   0  0  0  0  0  0  0  0  0  0  0  0
    1.7751    7.1682    0.0000 H   0  0  0  0  0  0  0  0  0  0  0  0
    2.8370    6.2120    0.0000 C   0  0  0  0  0  0  0  0  0  0  0  0
    3.3890    6.8251    0.0000 C   0  0  0  0  0  0  0  0  0  0  0  0
    3.1341    7.6097    0.0000 C   0  0  0  0  0  0  0  0  0  0  0  0
    2.4899    8.1252    0.0000 H   0  0  0  0  0  0  0  0  0  0  0  0
    2.3360    7.4008    0.0000 H   0  0  0  0  0  0  0  0  0  0  0  0
    3.6861    8.2228    0.0000 C   0  0  0  0  0  0  0  0  0  0  0  0
    3.8104    9.0384    0.0000 H   0  0  0  0  0  0  0  0  0  0  0  0
    3.1061    8.8096    0.0000 H   0  0  0  0  0  0  0  0  0  0  0  0
    4.4931    8.0513    0.0000 N   0  0  0  0  0  0  0  0  0  0  0  0
    5.0451    8.6644    0.0000 H   0  0  0  0  0  0  0  0  0  0  0  0
    4.7480    7.2667    0.0000 C   0  0  0  0  0  0  0  0  0  0  0  0
    5.3922    6.7512    0.0000 H   0  0  0  0  0  0  0  0  0  0  0  0
    5.5461    7.4756    0.0000 H   0  0  0  0  0  0  0  0  0  0  0  0
    4.1960    6.6536    0.0000 C   0  0  0  0  0  0  0  0  0  0  0  0
    4.5833    5.9251    0.0000 H   0  0  0  0  0  0  0  0  0  0  0  0
    4.9609    6.3445    0.0000 H   0  0  0  0  0  0  0  0  0  0  0  0
    3.6439    6.0405    0.0000 H   0  0  0  0  0  0  0  0  0  0  0  0
    3.0919    5.4274    0.0000 C   0  0  0  0  0  0  0  0  0  0  0  0
    3.7050    4.8753    0.0000 H   0  0  0  0  0  0  0  0  0  0  0  0
    2.5399    4.8143    0.0000 C   0  0  0  0  0  0  0  0  0  0  0  0
    2.7948    4.0297    0.0000 H   0  0  0  0  0  0  0  0  0  0  0  0
    0.2396    3.4905    0.0000 H   0  0  0  0  0  0  0  0  0  0  0  0
    0.0857    2.7661    0.0000 H   0  0  0  0  0  0  0  0  0  0  0  0
    1.9233    1.9354    0.0000 C   0  0  0  0  0  0  0  0  0  0  0  0
    2.6378    2.3479    0.0000 C   0  0  0  0  0  0  0  0  0  0  0  0
    2.6378    3.1729    0.0000 H   0  0  0  0  0  0  0  0  0  0  0  0
    4.3687    1.2210    0.0000 H   0  0  0  0  0  0  0  0  0  0  0  0
    5.4957    1.5229    0.0000 H   0  0  0  0  0  0  0  0  0  0  0  0
    5.1937    2.6499    0.0000 H   0  0  0  0  0  0  0  0  0  0  0  0
  1  2  1  0  0  0  0
  2  3  1  0  0  0  0
  3  4  2  0  0  0  0
  4  5  1  0  0  0  0
  4  6  1  0  0  0  0
  6  7  1  0  0  0  0
  6  8  2  0  0  0  0
  8  9  1  0  0  0  0
  9 10  2  0  0  0  0
 10 11  1  0  0  0  0
 11 12  1  0  0  0  0
 12 13  1  0  0  0  0
 13 14  2  0  0  0  0
 13 15  1  0  0  0  0
 15 16  1  0  0  0  0
 16 17  1  0  0  0  0
 17 18  2  0  0  0  0
 18 19  1  0  0  0  0
 18 20  1  0  0  0  0
 20 21  1  0  0  0  0
 20 22  2  0  0  0  0
 22 23  1  0  0  0  0
 22 24  1  0  0  0  0
 24 25  1  0  0  0  0
 24 26  2  0  0  0  0
 17 26  1  0  0  0  0
 16 27  1  0  0  0  0
 16 28  1  0  0  0  0
 15 29  1  0  0  0  0
 29 30  2  0  0  0  0
 30 31  1  0  0  0  0
 30 32  1  0  0  0  0
 32 33  1  0  0  0  0
 32 34  2  0  0  0  0
 34 35  1  0  0  0  0
 35 36  1  0  0  0  0
 36 37  1  0  0  0  0
 36 38  1  0  0  0  0
 36 39  1  0  0  0  0
 39 40  1  0  0  0  0
 39 41  1  0  0  0  0
 39 42  1  0  0  0  0
 42 43  1  0  0  0  0
 42 44  1  0  0  0  0
 44 45  1  0  0  0  0
 44 46  1  0  0  0  0
 44 47  1  0  0  0  0
 35 47  1  0  0  0  0
 47 48  1  0  0  0  0
 47 49  1  0  0  0  0
 35 50  1  0  0  0  0
 34 51  1  0  0  0  0
 51 52  1  0  0  0  0
 51 53  2  0  0  0  0
 29 53  1  0  0  0  0
 53 54  1  0  0  0  0
 12 55  1  0  0  0  0
 12 56  1  0  0  0  0
 11 57  1  0  0  0  0
  8 57  1  0  0  0  0
 57 58  2  0  0  0  0
  3 58  1  0  0  0  0
 58 59  1  0  0  0  0
  1 60  1  0  0  0  0
  1 61  1  0  0  0  0
  1 62  1  0  0  0  0
M  END
> <Potency>
38.7739102129072

> <pIC50>
4.411460399708347

> <Outcome>
Inactive

> <is_active>
0

$$$$

  Mrv1921 08232120312D          

 38 39  0  0  0  0            999 V2000
    0.0000   -0.8250    0.0000 C   0  0  0  0  0  0  0  0  0  0  0  0
    0.7145   -1.2375    0.0000 O   0  0  0  0  0  0  0  0  0  0  0  0
    0.7145   -2.0625    0.0000 C   0  0  0  0  0  0  0  0  0  0  0  0
    1.4289   -2.4750    0.0000 C   0  0  0  0  0  0  0  0  0  0  0  0
    2.1434   -2.0625    0.0000 H   0  0  0  0  0  0  0  0  0  0  0  0
    1.4289   -3.3000    0.0000 C   0  0  0  0  0  0  0  0  0  0  0  0
    2.1434   -3.7125    0.0000 H   0  0  0  0  0  0  0  0  0  0  0  0
    0.7145   -3.7125    0.0000 C   0  0  0  0  0  0  0  0  0  0  0  0
    0.7145   -4.5375    0.0000 S   0  0  0  0  0  0  0  0  0  0  0  0
   -0.1105   -4.5375    0.0000 O   0  0  0  0  0  0  0  0  0  0  0  0
    1.5395   -4.5375    0.0000 O   0  0  0  0  0  0  0  0  0  0  0  0
    0.7145   -5.3625    0.0000 N   0  0  0  0  0  0  0  0  0  0  0  0
    1.4289   -5.7750    0.0000 C   0  0  0  0  0  0  0  0  0  0  0  0
    2.2525   -5.7270    0.0000 H   0  0  0  0  0  0  0  0  0  0  0  0
    1.8823   -5.0857    0.0000 H   0  0  0  0  0  0  0  0  0  0  0  0
    1.4289   -6.6000    0.0000 C   0  0  0  0  0  0  0  0  0  0  0  0
    1.8823   -7.2893    0.0000 H   0  0  0  0  0  0  0  0  0  0  0  0
    2.2525   -6.6480    0.0000 H   0  0  0  0  0  0  0  0  0  0  0  0
    0.7145   -7.0125    0.0000 N   0  0  0  0  0  0  0  0  0  0  0  0
    0.7145   -7.8375    0.0000 C   0  0  0  0  0  0  0  0  0  0  0  0
    1.4289   -8.2500    0.0000 O   0  0  0  0  0  0  0  0  0  0  0  0
   -0.0000   -8.2500    0.0000 C   0  0  0  0  0  0  0  0  0  0  0  0
   -0.0000   -9.0750    0.0000 Cl  0  0  0  0  0  0  0  0  0  0  0  0
   -0.4533   -7.5607    0.0000 H   0  0  0  0  0  0  0  0  0  0  0  0
   -0.8236   -8.2020    0.0000 H   0  0  0  0  0  0  0  0  0  0  0  0
   -0.0000   -6.6000    0.0000 C   0  0  0  0  0  0  0  0  0  0  0  0
   -0.8236   -6.6480    0.0000 H   0  0  0  0  0  0  0  0  0  0  0  0
   -0.4533   -7.2893    0.0000 H   0  0  0  0  0  0  0  0  0  0  0  0
   -0.0000   -5.7750    0.0000 C   0  0  0  0  0  0  0  0  0  0  0  0
   -0.4533   -5.0857    0.0000 H   0  0  0  0  0  0  0  0  0  0  0  0
   -0.8236   -5.7270    0.0000 H   0  0  0  0  0  0  0  0  0  0  0  0
    0.0000   -3.3000    0.0000 C   0  0  0  0  0  0  0  0  0  0  0  0
   -0.7145   -3.7125    0.0000 H   0  0  0  0  0  0  0  0  0  0  0  0
    0.0000   -2.4750    0.0000 C   0  0  0  0  0  0  0  0  0  0  0  0
   -0.7145   -2.0625    0.0000 H   0  0  0  0  0  0  0  0  0  0  0  0
    0.4125   -0.1105    0.0000 H   0  0  0  0  0  0  0  0  0  0  0  0
   -0.7145   -0.4125    0.0000 H   0  0  0  0  0  0  0  0  0  0  0  0
   -0.4125   -1.5395    0.0000 H   0  0  0  0  0  0  0  0  0  0  0  0
  1  2  1  0  0  0  0
  2  3  1  0  0  0  0
  3  4  2  0  0  0  0
  4  5  1  0  0  0  0
  4  6  1  0  0  0  0
  6  7  1  0  0  0  0
  6  8  2  0  0  0  0
  8  9  1  0  0  0  0
  9 10  2  0  0  0  0
  9 11  2  0  0  0  0
  9 12  1  0  0  0  0
 12 13  1  0  0  0  0
 13 14  1  0  0  0  0
 13 15  1  0  0  0  0
 13 16  1  0  0  0  0
 16 17  1  0  0  0  0
 16 18  1  0  0  0  0
 16 19  1  0  0  0  0
 19 20  1  0  0  0  0
 20 21  2  0  0  0  0
 20 22  1  0  0  0  0
 22 23  1  0  0  0  0
 22 24  1  0  0  0  0
 22 25  1  0  0  0  0
 19 26  1  0  0  0  0
 26 27  1  0  0  0  0
 26 28  1  0  0  0  0
 26 29  1  0  0  0  0
 12 29  1  0  0  0  0
 29 30  1  0  0  0  0
 29 31  1  0  0  0  0
  8 32  1  0  0  0  0
 32 33  1  0  0  0  0
 32 34  2  0  0  0  0
  3 34  1  0  0  0  0
 34 35  1  0  0  0  0
  1 36  1  0  0  0  0
  1 37  1  0  0  0  0
  1 38  1  0  0  0  0
M  END
> <Potency>
27.5289190388588

> <pIC50>
4.560210841446319

> <Outcome>
Inactive

> <is_active>
0

$$$$

  Mrv1921 08232120312D          

 46 48  0  0  0  0            999 V2000
    3.5724   -1.2375    0.0000 C   0  0  0  0  0  0  0  0  0  0  0  0
    4.2868   -0.8250    0.0000 O   0  0  0  0  0  0  0  0  0  0  0  0
    4.2868    0.0000    0.0000 C   0  0  0  0  0  0  0  0  0  0  0  0
    3.5724    0.4125    0.0000 C   0  0  0  0  0  0  0  0  0  0  0  0
    2.8579    0.0000    0.0000 H   0  0  0  0  0  0  0  0  0  0  0  0
    3.5724    1.2375    0.0000 C   0  0  0  0  0  0  0  0  0  0  0  0
    2.8579    1.6500    0.0000 H   0  0  0  0  0  0  0  0  0  0  0  0
    4.2868    1.6500    0.0000 C   0  0  0  0  0  0  0  0  0  0  0  0
    4.2868    2.4750    0.0000 H   0  0  0  0  0  0  0  0  0  0  0  0
    5.0013    1.2375    0.0000 C   0  0  0  0  0  0  0  0  0  0  0  0
    5.7158    1.6500    0.0000 H   0  0  0  0  0  0  0  0  0  0  0  0
    5.0013    0.4125    0.0000 C   0  0  0  0  0  0  0  0  0  0  0  0
    5.7158    0.0000    0.0000 O   0  0  0  0  0  0  0  0  0  0  0  0
    6.4302    0.4125    0.0000 C   0  0  0  0  0  0  0  0  0  0  0  0
    7.1447    0.0000    0.0000 C   0  0  0  0  0  0  0  0  0  0  0  0
    7.8592    0.4125    0.0000 N   0  0  0  0  0  0  0  0  0  0  0  0
    8.5737    0.0000    0.0000 C   0  0  0  0  0  0  0  0  0  0  0  0
    8.5737   -0.8250    0.0000 O   0  0  0  0  0  0  0  0  0  0  0  0
    9.2881    0.4125    0.0000 C   0  0  0  0  0  0  0  0  0  0  0  0
    9.2881    1.2375    0.0000 C   0  0  0  0  0  0  0  0  0  0  0  0
    8.5737    1.6500    0.0000 H   0  0  0  0  0  0  0  0  0  0  0  0
   10.0026    1.6500    0.0000 C   0  0  0  0  0  0  0  0  0  0  0  0
   10.0026    2.4750    0.0000 O   0  0  0  0  0  0  0  0  0  0  0  0
   10.7171    1.2375    0.0000 N   0  0  0  0  0  0  0  0  0  0  0  0
   11.4315    1.6500    0.0000 H   0  0  0  0  0  0  0  0  0  0  0  0
   10.7171    0.4125    0.0000 C   0  0  0  0  0  0  0  0  0  0  0  0
   11.4315    0.0000    0.0000 C   0  0  0  0  0  0  0  0  0  0  0  0
   11.4315   -0.8250    0.0000 C   0  0  0  0  0  0  0  0  0  0  0  0
   10.7171   -1.2375    0.0000 C   0  0  0  0  0  0  0  0  0  0  0  0
   10.0026   -0.8250    0.0000 C   0  0  0  0  0  0  0  0  0  0  0  0
    9.2881   -1.2375    0.0000 C   0  0  0  0  0  0  0  0  0  0  0  0
    8.5737   -1.6500    0.0000 H   0  0  0  0  0  0  0  0  0  0  0  0
    9.2881   -2.0625    0.0000 H   0  0  0  0  0  0  0  0  0  0  0  0
   10.0026   -1.6500    0.0000 H   0  0  0  0  0  0  0  0  0  0  0  0
   10.0026    0.0000    0.0000 C   0  0  0  0  0  0  0  0  0  0  0  0
   10.7171   -2.0625    0.0000 H   0  0  0  0  0  0  0  0  0  0  0  0
   12.1460   -1.2375    0.0000 H   0  0  0  0  0  0  0  0  0  0  0  0
   12.1460    0.4125    0.0000 H   0  0  0  0  0  0  0  0  0  0  0  0
    7.8592    1.2375    0.0000 H   0  0  0  0  0  0  0  0  0  0  0  0
    6.7745   -0.7372    0.0000 H   0  0  0  0  0  0  0  0  0  0  0  0
    7.5150   -0.7372    0.0000 H   0  0  0  0  0  0  0  0  0  0  0  0
    6.8005    1.1497    0.0000 H   0  0  0  0  0  0  0  0  0  0  0  0
    6.0600    1.1497    0.0000 H   0  0  0  0  0  0  0  0  0  0  0  0
    3.1599   -0.5230    0.0000 H   0  0  0  0  0  0  0  0  0  0  0  0
    2.8579   -1.6500    0.0000 H   0  0  0  0  0  0  0  0  0  0  0  0
    3.9849   -1.9520    0.0000 H   0  0  0  0  0  0  0  0  0  0  0  0
  1  2  1  0  0  0  0
  2  3  1  0  0  0  0
  3  4  2  0  0  0  0
  4  5  1  0  0  0  0
  4  6  1  0  0  0  0
  6  7  1  0  0  0  0
  6  8  2  0  0  0  0
  8  9  1  0  0  0  0
  8 10  1  0  0  0  0
 10 11  1  0  0  0  0
 10 12  2  0  0  0  0
  3 12  1  0  0  0  0
 12 13  1  0  0  0  0
 13 14  1  0  0  0  0
 14 15  1  0  0  0  0
 15 16  1  0  0  0  0
 16 17  1  0  0  0  0
 17 18  2  0  0  0  0
 17 19  1  0  0  0  0
 19 20  4  0  0  0  0
 20 21  1  0  0  0  0
 20 22  4  0  0  0  0
 22 23  2  0  0  0  0
 22 24  4  0  0  0  0
 24 25  1  0  0  0  0
 24 26  4  0  0  0  0
 26 27  4  0  0  0  0
 27 28  4  0  0  0  0
 28 29  4  0  0  0  0
 29 30  4  0  0  0  0
 30 31  1  0  0  0  0
 31 32  1  0  0  0  0
 31 33  1  0  0  0  0
 31 34  1  0  0  0  0
 30 35  4  0  0  0  0
 19 35  4  0  0  0  0
 26 35  4  0  0  0  0
 29 36  1  0  0  0  0
 28 37  1  0  0  0  0
 27 38  1  0  0  0  0
 16 39  1  0  0  0  0
 15 40  1  0  0  0  0
 15 41  1  0  0  0  0
 14 42  1  0  0  0  0
 14 43  1  0  0  0  0
  1 44  1  0  0  0  0
  1 45  1  0  0  0  0
  1 46  1  0  0  0  0
M  END
> <Potency>
10.6210178459059

> <pIC50>
4.973833861439258

> <Outcome>
Inactive

> <is_active>
0

$$$$

  Mrv1921 08232120312D          

 35 36  0  0  0  0            999 V2000
    2.1434    0.4125    0.0000 N   0  0  0  0  0  0  0  0  0  0  0  0
    2.1434   -0.4125    0.0000 C   0  0  0  0  0  0  0  0  0  0  0  0
    2.1434   -1.2375    0.0000 C   0  0  0  0  0  0  0  0  0  0  0  0
    2.8579   -1.6500    0.0000 C   0  0  0  0  0  0  0  0  0  0  0  0
    3.5724   -1.2375    0.0000 H   0  0  0  0  0  0  0  0  0  0  0  0
    2.8579   -2.4750    0.0000 C   0  0  0  0  0  0  0  0  0  0  0  0
    3.5724   -2.8875    0.0000 H   0  0  0  0  0  0  0  0  0  0  0  0
    2.1434   -2.8875    0.0000 C   0  0  0  0  0  0  0  0  0  0  0  0
    2.1434   -3.7125    0.0000 H   0  0  0  0  0  0  0  0  0  0  0  0
    1.4289   -2.4750    0.0000 C   0  0  0  0  0  0  0  0  0  0  0  0
    0.7145   -2.8875    0.0000 C   0  0  0  0  0  0  0  0  0  0  0  0
    0.0000   -2.4750    0.0000 N   0  0  0  0  0  0  0  0  0  0  0  0
   -0.7145   -2.8875    0.0000 C   0  0  0  0  0  0  0  0  0  0  0  0
   -1.0847   -3.6247    0.0000 H   0  0  0  0  0  0  0  0  0  0  0  0
   -0.3442   -3.6247    0.0000 H   0  0  0  0  0  0  0  0  0  0  0  0
   -1.4289   -2.4750    0.0000 C   0  0  0  0  0  0  0  0  0  0  0  0
   -2.2525   -2.5230    0.0000 H   0  0  0  0  0  0  0  0  0  0  0  0
   -1.8823   -3.1643    0.0000 H   0  0  0  0  0  0  0  0  0  0  0  0
   -1.4289   -1.6500    0.0000 N   0  0  0  0  0  0  0  0  0  0  0  0
   -2.1434   -1.2375    0.0000 C   0  0  0  0  0  0  0  0  0  0  0  0
   -2.8579   -1.6500    0.0000 O   0  0  0  0  0  0  0  0  0  0  0  0
   -2.1434   -0.4125    0.0000 C   0  0  0  0  0  0  0  0  0  0  0  0
   -2.8579    0.0000    0.0000 Cl  0  0  0  0  0  0  0  0  0  0  0  0
   -1.3198   -0.3645    0.0000 H   0  0  0  0  0  0  0  0  0  0  0  0
   -1.6901    0.2768    0.0000 H   0  0  0  0  0  0  0  0  0  0  0  0
   -0.7145   -1.2375    0.0000 C   0  0  0  0  0  0  0  0  0  0  0  0
   -0.3442   -0.5003    0.0000 H   0  0  0  0  0  0  0  0  0  0  0  0
   -1.0847   -0.5003    0.0000 H   0  0  0  0  0  0  0  0  0  0  0  0
    0.0000   -1.6500    0.0000 C   0  0  0  0  0  0  0  0  0  0  0  0
    0.8236   -1.6020    0.0000 H   0  0  0  0  0  0  0  0  0  0  0  0
    0.4533   -0.9607    0.0000 H   0  0  0  0  0  0  0  0  0  0  0  0
    0.3442   -3.6247    0.0000 H   0  0  0  0  0  0  0  0  0  0  0  0
    1.0847   -3.6247    0.0000 H   0  0  0  0  0  0  0  0  0  0  0  0
    1.4289   -1.6500    0.0000 C   0  0  0  0  0  0  0  0  0  0  0  0
    1.2471   -0.8453    0.0000 H   0  0  0  0  0  0  0  0  0  0  0  0
  1  2  3  0  0  0  0
  2  3  1  0  0  0  0
  3  4  2  0  0  0  0
  4  5  1  0  0  0  0
  4  6  1  0  0  0  0
  6  7  1  0  0  0  0
  6  8  2  0  0  0  0
  8  9  1  0  0  0  0
  8 10  1  0  0  0  0
 10 11  1  0  0  0  0
 11 12  1  0  0  0  0
 12 13  1  0  0  0  0
 13 14  1  0  0  0  0
 13 15  1  0  0  0  0
 13 16  1  0  0  0  0
 16 17  1  0  0  0  0
 16 18  1  0  0  0  0
 16 19  1  0  0  0  0
 19 20  1  0  0  0  0
 20 21  2  0  0  0  0
 20 22  1  0  0  0  0
 22 23  1  0  0  0  0
 22 24  1  0  0  0  0
 22 25  1  0  0  0  0
 19 26  1  0  0  0  0
 26 27  1  0  0  0  0
 26 28  1  0  0  0  0
 26 29  1  0  0  0  0
 12 29  1  0  0  0  0
 29 30  1  0  0  0  0
 29 31  1  0  0  0  0
 11 32  1  0  0  0  0
 11 33  1  0  0  0  0
 10 34  2  0  0  0  0
  3 34  1  0  0  0  0
 34 35  1  0  0  0  0
M  END
> <Potency>
19.6916117921927

> <pIC50>
4.705718734658901

> <Outcome>
Inactive

> <is_active>
0

$$$$

  Mrv1921 08232120312D          

 41 43  0  0  0  0            999 V2000
    2.1434   -2.8875    0.0000 O   0  0  0  0  0  0  0  0  0  0  0  0
    1.4289   -2.4750    0.0000 C   0  0  0  0  0  0  0  0  0  0  0  0
    0.7145   -2.8875    0.0000 C   0  0  0  0  0  0  0  0  0  0  0  0
    0.7145   -3.7125    0.0000 Cl  0  0  0  0  0  0  0  0  0  0  0  0
    0.2611   -2.1982    0.0000 H   0  0  0  0  0  0  0  0  0  0  0  0
   -0.1091   -2.8395    0.0000 H   0  0  0  0  0  0  0  0  0  0  0  0
    1.4289   -1.6500    0.0000 N   0  0  0  0  0  0  0  0  0  0  0  0
    0.7145   -1.2375    0.0000 C   0  0  0  0  0  0  0  0  0  0  0  0
   -0.1091   -1.2855    0.0000 H   0  0  0  0  0  0  0  0  0  0  0  0
    0.2611   -1.9268    0.0000 H   0  0  0  0  0  0  0  0  0  0  0  0
    0.7145   -0.4125    0.0000 C   0  0  0  0  0  0  0  0  0  0  0  0
    0.2611    0.2768    0.0000 H   0  0  0  0  0  0  0  0  0  0  0  0
   -0.1091   -0.3645    0.0000 H   0  0  0  0  0  0  0  0  0  0  0  0
    1.4289    0.0000    0.0000 C   0  0  0  0  0  0  0  0  0  0  0  0
    1.7992    0.7372    0.0000 H   0  0  0  0  0  0  0  0  0  0  0  0
    1.0587    0.7372    0.0000 H   0  0  0  0  0  0  0  0  0  0  0  0
    2.1434   -0.4125    0.0000 C   0  0  0  0  0  0  0  0  0  0  0  0
    2.8579    0.0000    0.0000 C   0  0  0  0  0  0  0  0  0  0  0  0
    3.5724   -0.4125    0.0000 C   0  0  0  0  0  0  0  0  0  0  0  0
    4.2868   -0.0000    0.0000 N   0  0  0  0  0  0  0  0  0  0  0  0
    4.2868    0.8250    0.0000 C   0  0  0  0  0  0  0  0  0  0  0  0
    5.0013    1.2375    0.0000 C   0  0  0  0  0  0  0  0  0  0  0  0
    5.0013    2.0625    0.0000 C   0  0  0  0  0  0  0  0  0  0  0  0
    4.2868    2.4750    0.0000 H   0  0  0  0  0  0  0  0  0  0  0  0
    5.7158    2.4750    0.0000 C   0  0  0  0  0  0  0  0  0  0  0  0
    5.7158    3.3000    0.0000 H   0  0  0  0  0  0  0  0  0  0  0  0
    6.4302    2.0625    0.0000 C   0  0  0  0  0  0  0  0  0  0  0  0
    7.1447    2.4750    0.0000 F   0  0  0  0  0  0  0  0  0  0  0  0
    6.4302    1.2375    0.0000 C   0  0  0  0  0  0  0  0  0  0  0  0
    7.1447    0.8250    0.0000 H   0  0  0  0  0  0  0  0  0  0  0  0
    5.7158    0.8250    0.0000 C   0  0  0  0  0  0  0  0  0  0  0  0
    5.7158   -0.0000    0.0000 Cl  0  0  0  0  0  0  0  0  0  0  0  0
    3.8335    1.5143    0.0000 H   0  0  0  0  0  0  0  0  0  0  0  0
    3.4632    0.8730    0.0000 H   0  0  0  0  0  0  0  0  0  0  0  0
    5.0013   -0.4125    0.0000 H   0  0  0  0  0  0  0  0  0  0  0  0
    3.5724   -1.2375    0.0000 C   0  0  0  0  0  0  0  0  0  0  0  0
    2.8579   -1.6500    0.0000 C   0  0  0  0  0  0  0  0  0  0  0  0
    2.8579   -2.4750    0.0000 H   0  0  0  0  0  0  0  0  0  0  0  0
    2.1434   -1.2375    0.0000 C   0  0  0  0  0  0  0  0  0  0  0  0
    4.2868   -1.6500    0.0000 H   0  0  0  0  0  0  0  0  0  0  0  0
    2.8579    0.8250    0.0000 H   0  0  0  0  0  0  0  0  0  0  0  0
  1  2  2  0  0  0  0
  2  3  1  0  0  0  0
  3  4  1  0  0  0  0
  3  5  1  0  0  0  0
  3  6  1  0  0  0  0
  2  7  1  0  0  0  0
  7  8  1  0  0  0  0
  8  9  1  0  0  0  0
  8 10  1  0  0  0  0
  8 11  1  0  0  0  0
 11 12  1  0  0  0  0
 11 13  1  0  0  0  0
 11 14  1  0  0  0  0
 14 15  1  0  0  0  0
 14 16  1  0  0  0  0
 14 17  1  0  0  0  0
 17 18  2  0  0  0  0
 18 19  1  0  0  0  0
 19 20  1  0  0  0  0
 20 21  1  0  0  0  0
 21 22  1  0  0  0  0
 22 23  2  0  0  0  0
 23 24  1  0  0  0  0
 23 25  1  0  0  0  0
 25 26  1  0  0  0  0
 25 27  2  0  0  0  0
 27 28  1  0  0  0  0
 27 29  1  0  0  0  0
 29 30  1  0  0  0  0
 29 31  2  0  0  0  0
 22 31  1  0  0  0  0
 31 32  1  0  0  0  0
 21 33  1  0  0  0  0
 21 34  1  0  0  0  0
 20 35  1  0  0  0  0
 19 36  2  0  0  0  0
 36 37  1  0  0  0  0
 37 38  1  0  0  0  0
 37 39  2  0  0  0  0
  7 39  1  0  0  0  0
 17 39  1  0  0  0  0
 36 40  1  0  0  0  0
 18 41  1  0  0  0  0
M  END
> <Potency>
19.2632619727773

> <pIC50>
4.715270169089745

> <Outcome>
Inactive

> <is_active>
0

$$$$

  Mrv1921 08232120312D          

 29 31  0  0  0  0            999 V2000
    0.8838   -2.1500    0.0000 O   0  0  0  0  0  0  0  0  0  0  0  0
    1.1387   -1.3654    0.0000 C   0  0  0  0  0  0  0  0  0  0  0  0
    0.6538   -0.6979    0.0000 C   0  0  0  0  0  0  0  0  0  0  0  0
   -0.1712   -0.6979    0.0000 O   0  0  0  0  0  0  0  0  0  0  0  0
    1.1387   -0.0305    0.0000 N   0  0  0  0  0  0  0  0  0  0  0  0
    0.8838    0.7541    0.0000 C   0  0  0  0  0  0  0  0  0  0  0  0
    0.0768    0.9256    0.0000 C   0  0  0  0  0  0  0  0  0  0  0  0
   -0.4752    0.3126    0.0000 C   0  0  0  0  0  0  0  0  0  0  0  0
   -0.2203   -0.4721    0.0000 H   0  0  0  0  0  0  0  0  0  0  0  0
   -1.2822    0.4841    0.0000 C   0  0  0  0  0  0  0  0  0  0  0  0
   -1.8342   -0.1290    0.0000 H   0  0  0  0  0  0  0  0  0  0  0  0
   -1.5371    1.2687    0.0000 C   0  0  0  0  0  0  0  0  0  0  0  0
   -2.3441    1.4402    0.0000 Br  0  0  0  0  0  0  0  0  0  0  0  0
   -0.9851    1.8818    0.0000 C   0  0  0  0  0  0  0  0  0  0  0  0
   -1.2400    2.6664    0.0000 H   0  0  0  0  0  0  0  0  0  0  0  0
   -0.1781    1.7103    0.0000 C   0  0  0  0  0  0  0  0  0  0  0  0
    0.3739    2.3234    0.0000 H   0  0  0  0  0  0  0  0  0  0  0  0
    1.6523    1.0542    0.0000 H   0  0  0  0  0  0  0  0  0  0  0  0
    1.1019    1.5498    0.0000 H   0  0  0  0  0  0  0  0  0  0  0  0
    1.9233   -0.2854    0.0000 C   0  0  0  0  0  0  0  0  0  0  0  0
    2.6378    0.1271    0.0000 C   0  0  0  0  0  0  0  0  0  0  0  0
    3.3523   -0.2854    0.0000 C   0  0  0  0  0  0  0  0  0  0  0  0
    3.3523   -1.1104    0.0000 C   0  0  0  0  0  0  0  0  0  0  0  0
    2.6378   -1.5229    0.0000 C   0  0  0  0  0  0  0  0  0  0  0  0
    2.6378   -2.3479    0.0000 H   0  0  0  0  0  0  0  0  0  0  0  0
    1.9233   -1.1104    0.0000 C   0  0  0  0  0  0  0  0  0  0  0  0
    4.0668   -1.5229    0.0000 H   0  0  0  0  0  0  0  0  0  0  0  0
    4.0668    0.1271    0.0000 H   0  0  0  0  0  0  0  0  0  0  0  0
    2.6378    0.9521    0.0000 H   0  0  0  0  0  0  0  0  0  0  0  0
  1  2  2  0  0  0  0
  2  3  1  0  0  0  0
  3  4  2  0  0  0  0
  3  5  1  0  0  0  0
  5  6  1  0  0  0  0
  6  7  1  0  0  0  0
  7  8  2  0  0  0  0
  8  9  1  0  0  0  0
  8 10  1  0  0  0  0
 10 11  1  0  0  0  0
 10 12  2  0  0  0  0
 12 13  1  0  0  0  0
 12 14  1  0  0  0  0
 14 15  1  0  0  0  0
 14 16  2  0  0  0  0
  7 16  1  0  0  0  0
 16 17  1  0  0  0  0
  6 18  1  0  0  0  0
  6 19  1  0  0  0  0
  5 20  1  0  0  0  0
 20 21  2  0  0  0  0
 21 22  1  0  0  0  0
 22 23  2  0  0  0  0
 23 24  1  0  0  0  0
 24 25  1  0  0  0  0
 24 26  2  0  0  0  0
  2 26  1  0  0  0  0
 20 26  1  0  0  0  0
 23 27  1  0  0  0  0
 22 28  1  0  0  0  0
 21 29  1  0  0  0  0
M  END
> <Potency>
198.0

> <pIC50>
3.7033348097384686

> <Outcome>
Inactive

> <is_active>
0

$$$$

  Mrv1921 08232120312D          

 37 39  0  0  0  0            999 V2000
    0.7145   -5.3625    0.0000 C   0  0  0  0  0  0  0  0  0  0  0  0
    0.0000   -4.9500    0.0000 C   0  0  0  0  0  0  0  0  0  0  0  0
   -0.7145   -5.3625    0.0000 C   0  0  0  0  0  0  0  0  0  0  0  0
   -0.7145   -6.1875    0.0000 H   0  0  0  0  0  0  0  0  0  0  0  0
   -1.4289   -4.9500    0.0000 C   0  0  0  0  0  0  0  0  0  0  0  0
   -2.1434   -5.3625    0.0000 H   0  0  0  0  0  0  0  0  0  0  0  0
   -1.4289   -4.1250    0.0000 N   0  0  0  0  0  0  0  0  0  0  0  0
   -0.7145   -3.7125    0.0000 C   0  0  0  0  0  0  0  0  0  0  0  0
   -0.7145   -2.8875    0.0000 H   0  0  0  0  0  0  0  0  0  0  0  0
    0.0000   -4.1250    0.0000 C   0  0  0  0  0  0  0  0  0  0  0  0
    0.7145   -3.7125    0.0000 N   0  0  0  0  0  0  0  0  0  0  0  0
    0.7145   -2.8875    0.0000 C   0  0  0  0  0  0  0  0  0  0  0  0
    0.0000   -2.4750    0.0000 O   0  0  0  0  0  0  0  0  0  0  0  0
    1.4289   -2.4750    0.0000 C   0  0  0  0  0  0  0  0  0  0  0  0
    1.4289   -1.6500    0.0000 N   0  0  0  0  0  0  0  0  0  0  0  0
    0.7145   -1.2375    0.0000 C   0  0  0  0  0  0  0  0  0  0  0  0
    0.0000   -1.6500    0.0000 O   0  0  0  0  0  0  0  0  0  0  0  0
    0.7145   -0.4125    0.0000 C   0  0  0  0  0  0  0  0  0  0  0  0
    0.2611    0.2768    0.0000 H   0  0  0  0  0  0  0  0  0  0  0  0
   -0.1091   -0.3645    0.0000 H   0  0  0  0  0  0  0  0  0  0  0  0
    1.4289    0.0000    0.0000 O   0  0  0  0  0  0  0  0  0  0  0  0
    2.1434   -0.4125    0.0000 C   0  0  0  0  0  0  0  0  0  0  0  0
    2.8579    0.0000    0.0000 C   0  0  0  0  0  0  0  0  0  0  0  0
    3.5724   -0.4125    0.0000 C   0  0  0  0  0  0  0  0  0  0  0  0
    3.5724   -1.2375    0.0000 C   0  0  0  0  0  0  0  0  0  0  0  0
    4.2868   -1.6500    0.0000 Cl  0  0  0  0  0  0  0  0  0  0  0  0
    2.8579   -1.6500    0.0000 C   0  0  0  0  0  0  0  0  0  0  0  0
    2.8579   -2.4750    0.0000 H   0  0  0  0  0  0  0  0  0  0  0  0
    2.1434   -1.2375    0.0000 C   0  0  0  0  0  0  0  0  0  0  0  0
    4.2868   -0.0000    0.0000 H   0  0  0  0  0  0  0  0  0  0  0  0
    2.8579    0.8250    0.0000 H   0  0  0  0  0  0  0  0  0  0  0  0
    1.8823   -3.1643    0.0000 H   0  0  0  0  0  0  0  0  0  0  0  0
    2.2525   -2.5230    0.0000 H   0  0  0  0  0  0  0  0  0  0  0  0
    1.4289   -4.1250    0.0000 H   0  0  0  0  0  0  0  0  0  0  0  0
    0.3020   -6.0770    0.0000 H   0  0  0  0  0  0  0  0  0  0  0  0
    1.4289   -5.7750    0.0000 H   0  0  0  0  0  0  0  0  0  0  0  0
    1.1270   -4.6480    0.0000 H   0  0  0  0  0  0  0  0  0  0  0  0
  1  2  1  0  0  0  0
  2  3  2  0  0  0  0
  3  4  1  0  0  0  0
  3  5  1  0  0  0  0
  5  6  1  0  0  0  0
  5  7  2  0  0  0  0
  7  8  1  0  0  0  0
  8  9  1  0  0  0  0
  8 10  2  0  0  0  0
  2 10  1  0  0  0  0
 10 11  1  0  0  0  0
 11 12  1  0  0  0  0
 12 13  2  0  0  0  0
 12 14  1  0  0  0  0
 14 15  1  0  0  0  0
 15 16  1  0  0  0  0
 16 17  2  0  0  0  0
 16 18  1  0  0  0  0
 18 19  1  0  0  0  0
 18 20  1  0  0  0  0
 18 21  1  0  0  0  0
 21 22  1  0  0  0  0
 22 23  2  0  0  0  0
 23 24  1  0  0  0  0
 24 25  2  0  0  0  0
 25 26  1  0  0  0  0
 25 27  1  0  0  0  0
 27 28  1  0  0  0  0
 27 29  2  0  0  0  0
 15 29  1  0  0  0  0
 22 29  1  0  0  0  0
 24 30  1  0  0  0  0
 23 31  1  0  0  0  0
 14 32  1  0  0  0  0
 14 33  1  0  0  0  0
 11 34  1  0  0  0  0
  1 35  1  0  0  0  0
  1 36  1  0  0  0  0
  1 37  1  0  0  0  0
M  END
> <Potency>
59.9331319543654

> <pIC50>
4.222333026575869

> <Outcome>
Inactive

> <is_active>
0

$$$$

  Mrv1921 08232120312D          

 36 36  0  0  0  0            999 V2000
    0.7145   -1.2375    0.0000 C   0  0  0  0  0  0  0  0  0  0  0  0
    0.7145   -0.4125    0.0000 C   0  0  0  0  0  0  0  0  0  0  0  0
    0.0000    0.0000    0.0000 C   0  0  0  0  0  0  0  0  0  0  0  0
   -0.7145   -0.4125    0.0000 H   0  0  0  0  0  0  0  0  0  0  0  0
    0.0000    0.8250    0.0000 C   0  0  0  0  0  0  0  0  0  0  0  0
   -0.7145    1.2375    0.0000 H   0  0  0  0  0  0  0  0  0  0  0  0
    0.7145    1.2375    0.0000 N   0  0  0  0  0  0  0  0  0  0  0  0
    1.4289    0.8250    0.0000 C   0  0  0  0  0  0  0  0  0  0  0  0
    2.1434    1.2375    0.0000 H   0  0  0  0  0  0  0  0  0  0  0  0
    1.4289    0.0000    0.0000 C   0  0  0  0  0  0  0  0  0  0  0  0
    2.1434   -0.4125    0.0000 N   0  0  0  0  0  0  0  0  0  0  0  0
    2.8579    0.0000    0.0000 C   0  0  0  0  0  0  0  0  0  0  0  0
    2.8579    0.8250    0.0000 O   0  0  0  0  0  0  0  0  0  0  0  0
    3.5724   -0.4125    0.0000 C   0  0  0  0  0  0  0  0  0  0  0  0
    4.2868    0.0000    0.0000 C   0  0  0  0  0  0  0  0  0  0  0  0
    4.2868    0.8250    0.0000 C   0  0  0  0  0  0  0  0  0  0  0  0
    5.0837    0.6115    0.0000 H   0  0  0  0  0  0  0  0  0  0  0  0
    4.6993    1.5395    0.0000 H   0  0  0  0  0  0  0  0  0  0  0  0
    3.7035    1.4084    0.0000 H   0  0  0  0  0  0  0  0  0  0  0  0
    5.0013   -0.4125    0.0000 C   0  0  0  0  0  0  0  0  0  0  0  0
    5.7158    0.0000    0.0000 C   0  0  0  0  0  0  0  0  0  0  0  0
    5.8801   -0.8085    0.0000 H   0  0  0  0  0  0  0  0  0  0  0  0
    6.5346   -0.1009    0.0000 H   0  0  0  0  0  0  0  0  0  0  0  0
    6.0714    0.7444    0.0000 H   0  0  0  0  0  0  0  0  0  0  0  0
    5.0013   -1.2375    0.0000 C   0  0  0  0  0  0  0  0  0  0  0  0
    4.1763   -1.2375    0.0000 H   0  0  0  0  0  0  0  0  0  0  0  0
    5.0013   -2.0625    0.0000 H   0  0  0  0  0  0  0  0  0  0  0  0
    5.8263   -1.2375    0.0000 H   0  0  0  0  0  0  0  0  0  0  0  0
    5.0013    0.4125    0.0000 H   0  0  0  0  0  0  0  0  0  0  0  0
    3.5724    0.4125    0.0000 H   0  0  0  0  0  0  0  0  0  0  0  0
    3.2021   -1.1497    0.0000 H   0  0  0  0  0  0  0  0  0  0  0  0
    3.9426   -1.1497    0.0000 H   0  0  0  0  0  0  0  0  0  0  0  0
    2.1434   -1.2375    0.0000 H   0  0  0  0  0  0  0  0  0  0  0  0
   -0.1105   -1.2375    0.0000 H   0  0  0  0  0  0  0  0  0  0  0  0
    0.7145   -2.0625    0.0000 H   0  0  0  0  0  0  0  0  0  0  0  0
    1.5395   -1.2375    0.0000 H   0  0  0  0  0  0  0  0  0  0  0  0
  1  2  1  0  0  0  0
  2  3  2  0  0  0  0
  3  4  1  0  0  0  0
  3  5  1  0  0  0  0
  5  6  1  0  0  0  0
  5  7  2  0  0  0  0
  7  8  1  0  0  0  0
  8  9  1  0  0  0  0
  8 10  2  0  0  0  0
  2 10  1  0  0  0  0
 10 11  1  0  0  0  0
 11 12  1  0  0  0  0
 12 13  2  0  0  0  0
 12 14  1  0  0  0  0
 14 15  1  0  0  0  0
 15 16  1  0  0  0  0
 16 17  1  0  0  0  0
 16 18  1  0  0  0  0
 16 19  1  0  0  0  0
 15 20  1  0  0  0  0
 20 21  1  0  0  0  0
 21 22  1  0  0  0  0
 21 23  1  0  0  0  0
 21 24  1  0  0  0  0
 20 25  1  0  0  0  0
 25 26  1  0  0  0  0
 25 27  1  0  0  0  0
 25 28  1  0  0  0  0
 20 29  1  0  0  0  0
 15 30  1  0  0  0  0
 14 31  1  0  0  0  0
 14 32  1  0  0  0  0
 11 33  1  0  0  0  0
  1 34  1  0  0  0  0
  1 35  1  0  0  0  0
  1 36  1  0  0  0  0
M  END
> <Potency>
99.03

> <pIC50>
4.0042332209500255

> <Outcome>
Inactive

> <is_active>
0

$$$$

  Mrv1921 08232120312D          

 46 48  0  0  0  0            999 V2000
    3.5724   -1.2375    0.0000 C   0  0  0  0  0  0  0  0  0  0  0  0
    4.2868   -0.8250    0.0000 O   0  0  0  0  0  0  0  0  0  0  0  0
    4.2868    0.0000    0.0000 C   0  0  0  0  0  0  0  0  0  0  0  0
    3.5724    0.4125    0.0000 C   0  0  0  0  0  0  0  0  0  0  0  0
    2.8579    0.0000    0.0000 H   0  0  0  0  0  0  0  0  0  0  0  0
    3.5724    1.2375    0.0000 C   0  0  0  0  0  0  0  0  0  0  0  0
    2.8579    1.6500    0.0000 H   0  0  0  0  0  0  0  0  0  0  0  0
    4.2868    1.6500    0.0000 C   0  0  0  0  0  0  0  0  0  0  0  0
    4.2868    2.4750    0.0000 H   0  0  0  0  0  0  0  0  0  0  0  0
    5.0013    1.2375    0.0000 C   0  0  0  0  0  0  0  0  0  0  0  0
    5.7158    1.6500    0.0000 H   0  0  0  0  0  0  0  0  0  0  0  0
    5.0013    0.4125    0.0000 C   0  0  0  0  0  0  0  0  0  0  0  0
    5.7158    0.0000    0.0000 O   0  0  0  0  0  0  0  0  0  0  0  0
    6.4302    0.4125    0.0000 C   0  0  0  0  0  0  0  0  0  0  0  0
    7.1447    0.0000    0.0000 C   0  0  0  0  0  0  0  0  0  0  0  0
    7.1447   -0.8250    0.0000 C   0  0  0  0  0  0  0  0  0  0  0  0
    6.5613   -1.4084    0.0000 H   0  0  0  0  0  0  0  0  0  0  0  0
    7.5572   -1.5395    0.0000 H   0  0  0  0  0  0  0  0  0  0  0  0
    7.9416   -0.6115    0.0000 H   0  0  0  0  0  0  0  0  0  0  0  0
    7.8592    0.4125    0.0000 N   0  0  0  0  0  0  0  0  0  0  0  0
    8.5737    0.0000    0.0000 C   0  0  0  0  0  0  0  0  0  0  0  0
    8.5737   -0.8250    0.0000 O   0  0  0  0  0  0  0  0  0  0  0  0
    9.2881    0.4125    0.0000 C   0  0  0  0  0  0  0  0  0  0  0  0
    9.2881    1.2375    0.0000 C   0  0  0  0  0  0  0  0  0  0  0  0
    8.5737    1.6500    0.0000 H   0  0  0  0  0  0  0  0  0  0  0  0
   10.0026    1.6500    0.0000 C   0  0  0  0  0  0  0  0  0  0  0  0
   10.0026    2.4750    0.0000 O   0  0  0  0  0  0  0  0  0  0  0  0
   10.7171    1.2375    0.0000 N   0  0  0  0  0  0  0  0  0  0  0  0
   11.4315    1.6500    0.0000 H   0  0  0  0  0  0  0  0  0  0  0  0
   10.7171    0.4125    0.0000 C   0  0  0  0  0  0  0  0  0  0  0  0
   11.4315    0.0000    0.0000 C   0  0  0  0  0  0  0  0  0  0  0  0
   11.4315   -0.8250    0.0000 C   0  0  0  0  0  0  0  0  0  0  0  0
   12.1460   -1.2375    0.0000 F   0  0  0  0  0  0  0  0  0  0  0  0
   10.7171   -1.2375    0.0000 C   0  0  0  0  0  0  0  0  0  0  0  0
   10.0026   -0.8250    0.0000 C   0  0  0  0  0  0  0  0  0  0  0  0
    9.2881   -1.2375    0.0000 H   0  0  0  0  0  0  0  0  0  0  0  0
   10.0026    0.0000    0.0000 C   0  0  0  0  0  0  0  0  0  0  0  0
   10.7171   -2.0625    0.0000 H   0  0  0  0  0  0  0  0  0  0  0  0
   12.1460    0.4125    0.0000 H   0  0  0  0  0  0  0  0  0  0  0  0
    7.8592    1.2375    0.0000 H   0  0  0  0  0  0  0  0  0  0  0  0
    6.4302   -0.4125    0.0000 H   0  0  0  0  0  0  0  0  0  0  0  0
    6.8005    1.1497    0.0000 H   0  0  0  0  0  0  0  0  0  0  0  0
    6.0600    1.1497    0.0000 H   0  0  0  0  0  0  0  0  0  0  0  0
    3.1599   -0.5230    0.0000 H   0  0  0  0  0  0  0  0  0  0  0  0
    2.8579   -1.6500    0.0000 H   0  0  0  0  0  0  0  0  0  0  0  0
    3.9849   -1.9520    0.0000 H   0  0  0  0  0  0  0  0  0  0  0  0
  1  2  1  0  0  0  0
  2  3  1  0  0  0  0
  3  4  2  0  0  0  0
  4  5  1  0  0  0  0
  4  6  1  0  0  0  0
  6  7  1  0  0  0  0
  6  8  2  0  0  0  0
  8  9  1  0  0  0  0
  8 10  1  0  0  0  0
 10 11  1  0  0  0  0
 10 12  2  0  0  0  0
  3 12  1  0  0  0  0
 12 13  1  0  0  0  0
 13 14  1  0  0  0  0
 14 15  1  0  0  0  0
 15 16  1  0  0  0  0
 16 17  1  0  0  0  0
 16 18  1  0  0  0  0
 16 19  1  0  0  0  0
 15 20  1  0  0  0  0
 20 21  1  0  0  0  0
 21 22  2  0  0  0  0
 21 23  1  0  0  0  0
 23 24  4  0  0  0  0
 24 25  1  0  0  0  0
 24 26  4  0  0  0  0
 26 27  2  0  0  0  0
 26 28  4  0  0  0  0
 28 29  1  0  0  0  0
 28 30  4  0  0  0  0
 30 31  4  0  0  0  0
 31 32  4  0  0  0  0
 32 33  1  0  0  0  0
 32 34  4  0  0  0  0
 34 35  4  0  0  0  0
 35 36  1  0  0  0  0
 35 37  4  0  0  0  0
 23 37  4  0  0  0  0
 30 37  4  0  0  0  0
 34 38  1  0  0  0  0
 31 39  1  0  0  0  0
 20 40  1  0  0  0  0
 15 41  1  0  0  0  0
 14 42  1  0  0  0  0
 14 43  1  0  0  0  0
  1 44  1  0  0  0  0
  1 45  1  0  0  0  0
  1 46  1  0  0  0  0
M  END
> <Potency>
32.9741466986078

> <pIC50>
4.481826434261687

> <Outcome>
Inactive

> <is_active>
0

$$$$

  Mrv1921 08232120312D          

 46 48  0  0  0  0            999 V2000
    3.5724   -1.2375    0.0000 C   0  0  0  0  0  0  0  0  0  0  0  0
    4.2868   -0.8250    0.0000 O   0  0  0  0  0  0  0  0  0  0  0  0
    4.2868    0.0000    0.0000 C   0  0  0  0  0  0  0  0  0  0  0  0
    3.5724    0.4125    0.0000 C   0  0  0  0  0  0  0  0  0  0  0  0
    2.8579    0.0000    0.0000 H   0  0  0  0  0  0  0  0  0  0  0  0
    3.5724    1.2375    0.0000 C   0  0  0  0  0  0  0  0  0  0  0  0
    2.8579    1.6500    0.0000 H   0  0  0  0  0  0  0  0  0  0  0  0
    4.2868    1.6500    0.0000 C   0  0  0  0  0  0  0  0  0  0  0  0
    4.2868    2.4750    0.0000 H   0  0  0  0  0  0  0  0  0  0  0  0
    5.0013    1.2375    0.0000 C   0  0  0  0  0  0  0  0  0  0  0  0
    5.7158    1.6500    0.0000 H   0  0  0  0  0  0  0  0  0  0  0  0
    5.0013    0.4125    0.0000 C   0  0  0  0  0  0  0  0  0  0  0  0
    5.7158    0.0000    0.0000 O   0  0  0  0  0  0  0  0  0  0  0  0
    6.4302    0.4125    0.0000 C   0  0  0  0  0  0  0  0  0  0  0  0
    7.1447    0.0000    0.0000 C   0  0  0  0  0  0  0  0  0  0  0  0
    7.1447   -0.8250    0.0000 C   0  0  0  0  0  0  0  0  0  0  0  0
    6.5613   -1.4084    0.0000 H   0  0  0  0  0  0  0  0  0  0  0  0
    7.5572   -1.5395    0.0000 H   0  0  0  0  0  0  0  0  0  0  0  0
    7.9416   -0.6115    0.0000 H   0  0  0  0  0  0  0  0  0  0  0  0
    7.8592    0.4125    0.0000 N   0  0  0  0  0  0  0  0  0  0  0  0
    8.5737    0.0000    0.0000 C   0  0  0  0  0  0  0  0  0  0  0  0
    8.5737   -0.8250    0.0000 O   0  0  0  0  0  0  0  0  0  0  0  0
    9.2881    0.4125    0.0000 C   0  0  0  0  0  0  0  0  0  0  0  0
    9.2881    1.2375    0.0000 C   0  0  0  0  0  0  0  0  0  0  0  0
    8.5737    1.6500    0.0000 H   0  0  0  0  0  0  0  0  0  0  0  0
   10.0026    1.6500    0.0000 C   0  0  0  0  0  0  0  0  0  0  0  0
   10.0026    2.4750    0.0000 O   0  0  0  0  0  0  0  0  0  0  0  0
   10.7171    1.2375    0.0000 N   0  0  0  0  0  0  0  0  0  0  0  0
   11.4315    1.6500    0.0000 H   0  0  0  0  0  0  0  0  0  0  0  0
   10.7171    0.4125    0.0000 C   0  0  0  0  0  0  0  0  0  0  0  0
   11.4315    0.0000    0.0000 C   0  0  0  0  0  0  0  0  0  0  0  0
   11.4315   -0.8250    0.0000 C   0  0  0  0  0  0  0  0  0  0  0  0
   10.7171   -1.2375    0.0000 C   0  0  0  0  0  0  0  0  0  0  0  0
   10.7171   -2.0625    0.0000 F   0  0  0  0  0  0  0  0  0  0  0  0
   10.0026   -0.8250    0.0000 C   0  0  0  0  0  0  0  0  0  0  0  0
    9.2881   -1.2375    0.0000 H   0  0  0  0  0  0  0  0  0  0  0  0
   10.0026    0.0000    0.0000 C   0  0  0  0  0  0  0  0  0  0  0  0
   12.1460   -1.2375    0.0000 H   0  0  0  0  0  0  0  0  0  0  0  0
   12.1460    0.4125    0.0000 H   0  0  0  0  0  0  0  0  0  0  0  0
    7.8592    1.2375    0.0000 H   0  0  0  0  0  0  0  0  0  0  0  0
    6.4302   -0.4125    0.0000 H   0  0  0  0  0  0  0  0  0  0  0  0
    6.8005    1.1497    0.0000 H   0  0  0  0  0  0  0  0  0  0  0  0
    6.0600    1.1497    0.0000 H   0  0  0  0  0  0  0  0  0  0  0  0
    3.1599   -0.5230    0.0000 H   0  0  0  0  0  0  0  0  0  0  0  0
    2.8579   -1.6500    0.0000 H   0  0  0  0  0  0  0  0  0  0  0  0
    3.9849   -1.9520    0.0000 H   0  0  0  0  0  0  0  0  0  0  0  0
  1  2  1  0  0  0  0
  2  3  1  0  0  0  0
  3  4  2  0  0  0  0
  4  5  1  0  0  0  0
  4  6  1  0  0  0  0
  6  7  1  0  0  0  0
  6  8  2  0  0  0  0
  8  9  1  0  0  0  0
  8 10  1  0  0  0  0
 10 11  1  0  0  0  0
 10 12  2  0  0  0  0
  3 12  1  0  0  0  0
 12 13  1  0  0  0  0
 13 14  1  0  0  0  0
 14 15  1  0  0  0  0
 15 16  1  0  0  0  0
 16 17  1  0  0  0  0
 16 18  1  0  0  0  0
 16 19  1  0  0  0  0
 15 20  1  0  0  0  0
 20 21  1  0  0  0  0
 21 22  2  0  0  0  0
 21 23  1  0  0  0  0
 23 24  4  0  0  0  0
 24 25  1  0  0  0  0
 24 26  4  0  0  0  0
 26 27  2  0  0  0  0
 26 28  4  0  0  0  0
 28 29  1  0  0  0  0
 28 30  4  0  0  0  0
 30 31  4  0  0  0  0
 31 32  4  0  0  0  0
 32 33  4  0  0  0  0
 33 34  1  0  0  0  0
 33 35  4  0  0  0  0
 35 36  1  0  0  0  0
 35 37  4  0  0  0  0
 23 37  4  0  0  0  0
 30 37  4  0  0  0  0
 32 38  1  0  0  0  0
 31 39  1  0  0  0  0
 20 40  1  0  0  0  0
 15 41  1  0  0  0  0
 14 42  1  0  0  0  0
 14 43  1  0  0  0  0
  1 44  1  0  0  0  0
  1 45  1  0  0  0  0
  1 46  1  0  0  0  0
M  END
> <Potency>
16.4413907069583

> <pIC50>
4.78406145012849

> <Outcome>
Inactive

> <is_active>
0

$$$$

  Mrv1921 08232120312D          

 34 36  0  0  0  0            999 V2000
    1.4358   -2.7631    0.0000 O   0  0  0  0  0  0  0  0  0  0  0  0
    0.8838   -2.1500    0.0000 C   0  0  0  0  0  0  0  0  0  0  0  0
    0.0768   -2.3215    0.0000 N   0  0  0  0  0  0  0  0  0  0  0  0
   -0.1781   -3.1062    0.0000 C   0  0  0  0  0  0  0  0  0  0  0  0
    0.3739   -3.7192    0.0000 C   0  0  0  0  0  0  0  0  0  0  0  0
    1.1809   -3.5477    0.0000 H   0  0  0  0  0  0  0  0  0  0  0  0
    0.1190   -4.5039    0.0000 N   0  0  0  0  0  0  0  0  0  0  0  0
   -0.6880   -4.6754    0.0000 C   0  0  0  0  0  0  0  0  0  0  0  0
   -0.9429   -5.4600    0.0000 H   0  0  0  0  0  0  0  0  0  0  0  0
   -1.2400   -4.0623    0.0000 C   0  0  0  0  0  0  0  0  0  0  0  0
   -2.0470   -4.2338    0.0000 H   0  0  0  0  0  0  0  0  0  0  0  0
   -0.9851   -3.2777    0.0000 C   0  0  0  0  0  0  0  0  0  0  0  0
   -1.5371   -2.6646    0.0000 C   0  0  0  0  0  0  0  0  0  0  0  0
   -1.2822   -1.8800    0.0000 O   0  0  0  0  0  0  0  0  0  0  0  0
   -1.8342   -1.2669    0.0000 H   0  0  0  0  0  0  0  0  0  0  0  0
   -2.3353   -2.4557    0.0000 H   0  0  0  0  0  0  0  0  0  0  0  0
   -2.1813   -3.1800    0.0000 H   0  0  0  0  0  0  0  0  0  0  0  0
   -0.4752   -1.7084    0.0000 H   0  0  0  0  0  0  0  0  0  0  0  0
    1.1387   -1.3654    0.0000 C   0  0  0  0  0  0  0  0  0  0  0  0
    0.6538   -0.6979    0.0000 C   0  0  0  0  0  0  0  0  0  0  0  0
   -0.0746   -0.3106    0.0000 H   0  0  0  0  0  0  0  0  0  0  0  0
   -0.0746   -1.0853    0.0000 H   0  0  0  0  0  0  0  0  0  0  0  0
    1.1387   -0.0305    0.0000 O   0  0  0  0  0  0  0  0  0  0  0  0
    1.9233   -0.2854    0.0000 C   0  0  0  0  0  0  0  0  0  0  0  0
    2.6378    0.1271    0.0000 C   0  0  0  0  0  0  0  0  0  0  0  0
    3.3523   -0.2854    0.0000 C   0  0  0  0  0  0  0  0  0  0  0  0
    3.3523   -1.1104    0.0000 C   0  0  0  0  0  0  0  0  0  0  0  0
    4.0668   -1.5229    0.0000 Cl  0  0  0  0  0  0  0  0  0  0  0  0
    2.6378   -1.5229    0.0000 C   0  0  0  0  0  0  0  0  0  0  0  0
    2.6378   -2.3479    0.0000 H   0  0  0  0  0  0  0  0  0  0  0  0
    1.9233   -1.1104    0.0000 C   0  0  0  0  0  0  0  0  0  0  0  0
    4.0668    0.1271    0.0000 H   0  0  0  0  0  0  0  0  0  0  0  0
    2.6378    0.9521    0.0000 H   0  0  0  0  0  0  0  0  0  0  0  0
    1.7221   -1.9487    0.0000 H   0  0  0  0  0  0  0  0  0  0  0  0
  1  2  2  0  0  0  0
  2  3  1  0  0  0  0
  3  4  1  0  0  0  0
  4  5  2  0  0  0  0
  5  6  1  0  0  0  0
  5  7  1  0  0  0  0
  7  8  2  0  0  0  0
  8  9  1  0  0  0  0
  8 10  1  0  0  0  0
 10 11  1  0  0  0  0
 10 12  2  0  0  0  0
  4 12  1  0  0  0  0
 12 13  1  0  0  0  0
 13 14  1  0  0  0  0
 14 15  1  0  0  0  0
 13 16  1  0  0  0  0
 13 17  1  0  0  0  0
  3 18  1  0  0  0  0
  2 19  1  0  0  0  0
 19 20  1  0  0  0  0
 20 21  1  0  0  0  0
 20 22  1  0  0  0  0
 20 23  1  0  0  0  0
 23 24  1  0  0  0  0
 24 25  2  0  0  0  0
 25 26  1  0  0  0  0
 26 27  2  0  0  0  0
 27 28  1  0  0  0  0
 27 29  1  0  0  0  0
 29 30  1  0  0  0  0
 29 31  2  0  0  0  0
 19 31  1  0  0  0  0
 24 31  1  0  0  0  0
 26 32  1  0  0  0  0
 25 33  1  0  0  0  0
 19 34  1  0  0  0  0
M  END
> <Potency>
42.3575881065483

> <pIC50>
4.373068777125426

> <Outcome>
Inactive

> <is_active>
0

$$$$

  Mrv1921 08232120312D          

 34 36  0  0  0  0            999 V2000
    0.9731   -4.0144    0.0000 C   0  0  0  0  0  0  0  0  0  0  0  0
    0.1526   -3.9282    0.0000 C   0  0  0  0  0  0  0  0  0  0  0  0
   -0.3323   -4.5956    0.0000 C   0  0  0  0  0  0  0  0  0  0  0  0
    0.0032   -5.3493    0.0000 H   0  0  0  0  0  0  0  0  0  0  0  0
   -1.1528   -4.5094    0.0000 C   0  0  0  0  0  0  0  0  0  0  0  0
   -1.6377   -5.1768    0.0000 H   0  0  0  0  0  0  0  0  0  0  0  0
   -1.4884   -3.7557    0.0000 N   0  0  0  0  0  0  0  0  0  0  0  0
   -1.0034   -3.0882    0.0000 C   0  0  0  0  0  0  0  0  0  0  0  0
   -1.3390   -2.3346    0.0000 H   0  0  0  0  0  0  0  0  0  0  0  0
   -0.1830   -3.1745    0.0000 C   0  0  0  0  0  0  0  0  0  0  0  0
    0.3020   -2.5070    0.0000 N   0  0  0  0  0  0  0  0  0  0  0  0
    0.0470   -1.7224    0.0000 C   0  0  0  0  0  0  0  0  0  0  0  0
   -0.5261   -1.1290    0.0000 H   0  0  0  0  0  0  0  0  0  0  0  0
   -0.7654   -1.8657    0.0000 H   0  0  0  0  0  0  0  0  0  0  0  0
    0.7145   -1.2375    0.0000 C   0  0  0  0  0  0  0  0  0  0  0  0
    1.1018   -0.5091    0.0000 H   0  0  0  0  0  0  0  0  0  0  0  0
    0.3272   -0.5091    0.0000 H   0  0  0  0  0  0  0  0  0  0  0  0
    1.3819   -1.7224    0.0000 N   0  0  0  0  0  0  0  0  0  0  0  0
    2.1665   -1.4675    0.0000 C   0  0  0  0  0  0  0  0  0  0  0  0
    2.3381   -0.6605    0.0000 C   0  0  0  0  0  0  0  0  0  0  0  0
    1.7250   -0.1085    0.0000 H   0  0  0  0  0  0  0  0  0  0  0  0
    3.1227   -0.4056    0.0000 C   0  0  0  0  0  0  0  0  0  0  0  0
    3.2942    0.4014    0.0000 H   0  0  0  0  0  0  0  0  0  0  0  0
    3.7358   -0.9576    0.0000 C   0  0  0  0  0  0  0  0  0  0  0  0
    4.5204   -0.7027    0.0000 H   0  0  0  0  0  0  0  0  0  0  0  0
    3.5642   -1.7646    0.0000 C   0  0  0  0  0  0  0  0  0  0  0  0
    4.1773   -2.3166    0.0000 Cl  0  0  0  0  0  0  0  0  0  0  0  0
    2.7796   -2.0195    0.0000 C   0  0  0  0  0  0  0  0  0  0  0  0
    2.6081   -2.8265    0.0000 H   0  0  0  0  0  0  0  0  0  0  0  0
    1.1270   -2.5070    0.0000 C   0  0  0  0  0  0  0  0  0  0  0  0
    1.6119   -3.1745    0.0000 O   0  0  0  0  0  0  0  0  0  0  0  0
    0.8869   -4.8349    0.0000 H   0  0  0  0  0  0  0  0  0  0  0  0
    1.7936   -4.1006    0.0000 H   0  0  0  0  0  0  0  0  0  0  0  0
    1.0593   -3.1939    0.0000 H   0  0  0  0  0  0  0  0  0  0  0  0
  1  2  1  0  0  0  0
  2  3  2  0  0  0  0
  3  4  1  0  0  0  0
  3  5  1  0  0  0  0
  5  6  1  0  0  0  0
  5  7  2  0  0  0  0
  7  8  1  0  0  0  0
  8  9  1  0  0  0  0
  8 10  2  0  0  0  0
  2 10  1  0  0  0  0
 10 11  1  0  0  0  0
 11 12  1  0  0  0  0
 12 13  1  0  0  0  0
 12 14  1  0  0  0  0
 12 15  1  0  0  0  0
 15 16  1  0  0  0  0
 15 17  1  0  0  0  0
 15 18  1  0  0  0  0
 18 19  1  0  0  0  0
 19 20  2  0  0  0  0
 20 21  1  0  0  0  0
 20 22  1  0  0  0  0
 22 23  1  0  0  0  0
 22 24  2  0  0  0  0
 24 25  1  0  0  0  0
 24 26  1  0  0  0  0
 26 27  1  0  0  0  0
 26 28  2  0  0  0  0
 19 28  1  0  0  0  0
 28 29  1  0  0  0  0
 18 30  1  0  0  0  0
 11 30  1  0  0  0  0
 30 31  2  0  0  0  0
  1 32  1  0  0  0  0
  1 33  1  0  0  0  0
  1 34  1  0  0  0  0
M  END
> <Potency>
81.673116505125

> <pIC50>
4.08792087216765

> <Outcome>
Inactive

> <is_active>
0

$$$$

  Mrv1921 08232120312D          

 37 39  0  0  0  0            999 V2000
   -0.2093    3.1792    0.0000 O   0  0  0  0  0  0  0  0  0  0  0  0
   -0.2093    2.3542    0.0000 C   0  0  0  0  0  0  0  0  0  0  0  0
   -0.9237    1.9417    0.0000 C   0  0  0  0  0  0  0  0  0  0  0  0
   -1.6382    2.3542    0.0000 C   0  0  0  0  0  0  0  0  0  0  0  0
   -2.3527    1.9417    0.0000 C   0  0  0  0  0  0  0  0  0  0  0  0
   -2.3527    1.1167    0.0000 H   0  0  0  0  0  0  0  0  0  0  0  0
   -3.0671    2.3542    0.0000 C   0  0  0  0  0  0  0  0  0  0  0  0
   -3.7816    1.9417    0.0000 H   0  0  0  0  0  0  0  0  0  0  0  0
   -3.0671    3.1792    0.0000 C   0  0  0  0  0  0  0  0  0  0  0  0
   -3.7816    3.5917    0.0000 H   0  0  0  0  0  0  0  0  0  0  0  0
   -2.3527    3.5917    0.0000 N   0  0  0  0  0  0  0  0  0  0  0  0
   -1.6382    3.1792    0.0000 C   0  0  0  0  0  0  0  0  0  0  0  0
   -0.9237    3.5917    0.0000 H   0  0  0  0  0  0  0  0  0  0  0  0
   -1.2940    1.2044    0.0000 H   0  0  0  0  0  0  0  0  0  0  0  0
   -0.5535    1.2044    0.0000 H   0  0  0  0  0  0  0  0  0  0  0  0
    0.5052    1.9417    0.0000 N   0  0  0  0  0  0  0  0  0  0  0  0
    1.2197    2.3542    0.0000 C   0  0  0  0  0  0  0  0  0  0  0  0
    1.2197    3.1792    0.0000 C   0  0  0  0  0  0  0  0  0  0  0  0
    0.5052    3.5917    0.0000 H   0  0  0  0  0  0  0  0  0  0  0  0
    1.9341    3.5917    0.0000 C   0  0  0  0  0  0  0  0  0  0  0  0
    1.9341    4.4167    0.0000 H   0  0  0  0  0  0  0  0  0  0  0  0
    2.6486    3.1792    0.0000 C   0  0  0  0  0  0  0  0  0  0  0  0
    3.3631    3.5917    0.0000 H   0  0  0  0  0  0  0  0  0  0  0  0
    2.6486    2.3542    0.0000 C   0  0  0  0  0  0  0  0  0  0  0  0
    3.3631    1.9417    0.0000 O   0  0  0  0  0  0  0  0  0  0  0  0
    3.3631    1.1167    0.0000 C   0  0  0  0  0  0  0  0  0  0  0  0
    3.9465    0.5333    0.0000 C   0  0  0  0  0  0  0  0  0  0  0  0
    4.6609    0.1208    0.0000 H   0  0  0  0  0  0  0  0  0  0  0  0
    4.6609    0.9458    0.0000 H   0  0  0  0  0  0  0  0  0  0  0  0
    3.3631   -0.0500    0.0000 C   0  0  0  0  0  0  0  0  0  0  0  0
    3.3631   -0.8750    0.0000 O   0  0  0  0  0  0  0  0  0  0  0  0
    2.7797    0.5333    0.0000 N   0  0  0  0  0  0  0  0  0  0  0  0
    2.0521    0.1444    0.0000 H   0  0  0  0  0  0  0  0  0  0  0  0
    2.6009    1.4324    0.0000 H   0  0  0  0  0  0  0  0  0  0  0  0
    1.9341    1.9417    0.0000 C   0  0  0  0  0  0  0  0  0  0  0  0
    1.4766    1.2552    0.0000 H   0  0  0  0  0  0  0  0  0  0  0  0
    0.5052    1.1167    0.0000 H   0  0  0  0  0  0  0  0  0  0  0  0
  1  2  2  0  0  0  0
  2  3  1  0  0  0  0
  3  4  1  0  0  0  0
  4  5  2  0  0  0  0
  5  6  1  0  0  0  0
  5  7  1  0  0  0  0
  7  8  1  0  0  0  0
  7  9  2  0  0  0  0
  9 10  1  0  0  0  0
  9 11  1  0  0  0  0
 11 12  2  0  0  0  0
  4 12  1  0  0  0  0
 12 13  1  0  0  0  0
  3 14  1  0  0  0  0
  3 15  1  0  0  0  0
  2 16  1  0  0  0  0
 16 17  1  0  0  0  0
 17 18  2  0  0  0  0
 18 19  1  0  0  0  0
 18 20  1  0  0  0  0
 20 21  1  0  0  0  0
 20 22  2  0  0  0  0
 22 23  1  0  0  0  0
 22 24  1  0  0  0  0
 24 25  1  0  0  0  0
 25 26  1  0  0  0  0
 26 27  1  0  0  0  0
 27 28  1  0  0  0  0
 27 29  1  0  0  0  0
 27 30  1  0  0  0  0
 30 31  2  0  0  0  0
 30 32  1  0  0  0  0
 26 32  1  0  0  0  0
 32 33  1  0  0  0  0
 26 34  1  0  0  0  0
 24 35  2  0  0  0  0
 17 35  1  0  0  0  0
 35 36  1  0  0  0  0
 16 37  1  0  0  0  0
M  END
> <Potency>
88.3422842953824

> <pIC50>
4.053831375237763

> <Outcome>
Inactive

> <is_active>
0

$$$$

  Mrv1921 08232120312D          

 39 41  0  0  0  0            999 V2000
   -5.5065   -4.2458    0.0000 C   0  0  0  0  0  0  0  0  0  0  0  0
   -4.7920   -3.8333    0.0000 C   0  0  0  0  0  0  0  0  0  0  0  0
   -4.7920   -3.0083    0.0000 C   0  0  0  0  0  0  0  0  0  0  0  0
   -5.5065   -2.5958    0.0000 H   0  0  0  0  0  0  0  0  0  0  0  0
   -4.0776   -2.5958    0.0000 C   0  0  0  0  0  0  0  0  0  0  0  0
   -4.0776   -1.7708    0.0000 N   0  0  0  0  0  0  0  0  0  0  0  0
   -4.7920   -1.3583    0.0000 C   0  0  0  0  0  0  0  0  0  0  0  0
   -5.5065   -1.7708    0.0000 O   0  0  0  0  0  0  0  0  0  0  0  0
   -4.7920   -0.5333    0.0000 C   0  0  0  0  0  0  0  0  0  0  0  0
   -5.5065   -0.1208    0.0000 C   0  0  0  0  0  0  0  0  0  0  0  0
   -6.2210   -0.5333    0.0000 C   0  0  0  0  0  0  0  0  0  0  0  0
   -6.2210   -1.3583    0.0000 H   0  0  0  0  0  0  0  0  0  0  0  0
   -6.9354   -0.1208    0.0000 N   0  0  0  0  0  0  0  0  0  0  0  0
   -6.9354    0.7042    0.0000 C   0  0  0  0  0  0  0  0  0  0  0  0
   -7.6499    1.1167    0.0000 H   0  0  0  0  0  0  0  0  0  0  0  0
   -6.2210    1.1167    0.0000 N   0  0  0  0  0  0  0  0  0  0  0  0
   -5.5065    0.7042    0.0000 C   0  0  0  0  0  0  0  0  0  0  0  0
   -4.7920    1.1167    0.0000 H   0  0  0  0  0  0  0  0  0  0  0  0
   -3.9684   -0.4853    0.0000 H   0  0  0  0  0  0  0  0  0  0  0  0
   -4.3387    0.1560    0.0000 H   0  0  0  0  0  0  0  0  0  0  0  0
   -3.3631   -1.3583    0.0000 H   0  0  0  0  0  0  0  0  0  0  0  0
   -3.3631   -3.0083    0.0000 C   0  0  0  0  0  0  0  0  0  0  0  0
   -2.6486   -2.5958    0.0000 H   0  0  0  0  0  0  0  0  0  0  0  0
   -3.3631   -3.8333    0.0000 C   0  0  0  0  0  0  0  0  0  0  0  0
   -2.6486   -4.2458    0.0000 O   0  0  0  0  0  0  0  0  0  0  0  0
   -2.6486   -5.0708    0.0000 C   0  0  0  0  0  0  0  0  0  0  0  0
   -2.0653   -5.6542    0.0000 C   0  0  0  0  0  0  0  0  0  0  0  0
   -1.3508   -6.0667    0.0000 H   0  0  0  0  0  0  0  0  0  0  0  0
   -1.3508   -5.2417    0.0000 H   0  0  0  0  0  0  0  0  0  0  0  0
   -2.6486   -6.2375    0.0000 C   0  0  0  0  0  0  0  0  0  0  0  0
   -2.6486   -7.0625    0.0000 O   0  0  0  0  0  0  0  0  0  0  0  0
   -3.2320   -5.6542    0.0000 N   0  0  0  0  0  0  0  0  0  0  0  0
   -3.9596   -6.0431    0.0000 H   0  0  0  0  0  0  0  0  0  0  0  0
   -3.4108   -4.7551    0.0000 H   0  0  0  0  0  0  0  0  0  0  0  0
   -4.0776   -4.2458    0.0000 C   0  0  0  0  0  0  0  0  0  0  0  0
   -4.5352   -4.9323    0.0000 H   0  0  0  0  0  0  0  0  0  0  0  0
   -5.9190   -3.5313    0.0000 H   0  0  0  0  0  0  0  0  0  0  0  0
   -6.2210   -4.6583    0.0000 H   0  0  0  0  0  0  0  0  0  0  0  0
   -5.0940   -4.9603    0.0000 H   0  0  0  0  0  0  0  0  0  0  0  0
  1  2  1  0  0  0  0
  2  3  2  0  0  0  0
  3  4  1  0  0  0  0
  3  5  1  0  0  0  0
  5  6  1  0  0  0  0
  6  7  1  0  0  0  0
  7  8  2  0  0  0  0
  7  9  1  0  0  0  0
  9 10  1  0  0  0  0
 10 11  2  0  0  0  0
 11 12  1  0  0  0  0
 11 13  1  0  0  0  0
 13 14  2  0  0  0  0
 14 15  1  0  0  0  0
 14 16  1  0  0  0  0
 16 17  2  0  0  0  0
 10 17  1  0  0  0  0
 17 18  1  0  0  0  0
  9 19  1  0  0  0  0
  9 20  1  0  0  0  0
  6 21  1  0  0  0  0
  5 22  2  0  0  0  0
 22 23  1  0  0  0  0
 22 24  1  0  0  0  0
 24 25  1  0  0  0  0
 25 26  1  0  0  0  0
 26 27  1  0  0  0  0
 27 28  1  0  0  0  0
 27 29  1  0  0  0  0
 27 30  1  0  0  0  0
 30 31  2  0  0  0  0
 30 32  1  0  0  0  0
 26 32  1  0  0  0  0
 32 33  1  0  0  0  0
 26 34  1  0  0  0  0
 24 35  2  0  0  0  0
  2 35  1  0  0  0  0
 35 36  1  0  0  0  0
  1 37  1  0  0  0  0
  1 38  1  0  0  0  0
  1 39  1  0  0  0  0
M  END
> <Potency>
34.3199073353597

> <pIC50>
4.464453893428119

> <Outcome>
Inactive

> <is_active>
0

$$$$

  Mrv1921 08232120312D          

 36 38  0  0  0  0            999 V2000
   -0.2093    3.1792    0.0000 O   0  0  0  0  0  0  0  0  0  0  0  0
   -0.2093    2.3542    0.0000 C   0  0  0  0  0  0  0  0  0  0  0  0
   -0.9237    1.9417    0.0000 C   0  0  0  0  0  0  0  0  0  0  0  0
   -1.6382    2.3542    0.0000 C   0  0  0  0  0  0  0  0  0  0  0  0
   -2.3527    1.9417    0.0000 C   0  0  0  0  0  0  0  0  0  0  0  0
   -2.3527    1.1167    0.0000 H   0  0  0  0  0  0  0  0  0  0  0  0
   -3.0671    2.3542    0.0000 N   0  0  0  0  0  0  0  0  0  0  0  0
   -3.0671    3.1792    0.0000 C   0  0  0  0  0  0  0  0  0  0  0  0
   -3.7816    3.5917    0.0000 H   0  0  0  0  0  0  0  0  0  0  0  0
   -2.3527    3.5917    0.0000 N   0  0  0  0  0  0  0  0  0  0  0  0
   -1.6382    3.1792    0.0000 C   0  0  0  0  0  0  0  0  0  0  0  0
   -0.9237    3.5917    0.0000 H   0  0  0  0  0  0  0  0  0  0  0  0
   -1.2940    1.2044    0.0000 H   0  0  0  0  0  0  0  0  0  0  0  0
   -0.5535    1.2044    0.0000 H   0  0  0  0  0  0  0  0  0  0  0  0
    0.5052    1.9417    0.0000 N   0  0  0  0  0  0  0  0  0  0  0  0
    1.2197    2.3542    0.0000 C   0  0  0  0  0  0  0  0  0  0  0  0
    1.2197    3.1792    0.0000 C   0  0  0  0  0  0  0  0  0  0  0  0
    0.5052    3.5917    0.0000 H   0  0  0  0  0  0  0  0  0  0  0  0
    1.9341    3.5917    0.0000 C   0  0  0  0  0  0  0  0  0  0  0  0
    1.9341    4.4167    0.0000 F   0  0  0  0  0  0  0  0  0  0  0  0
    2.6486    3.1792    0.0000 C   0  0  0  0  0  0  0  0  0  0  0  0
    3.3631    3.5917    0.0000 H   0  0  0  0  0  0  0  0  0  0  0  0
    2.6486    2.3542    0.0000 C   0  0  0  0  0  0  0  0  0  0  0  0
    3.3631    1.9417    0.0000 O   0  0  0  0  0  0  0  0  0  0  0  0
    3.3631    1.1167    0.0000 C   0  0  0  0  0  0  0  0  0  0  0  0
    3.9465    0.5333    0.0000 C   0  0  0  0  0  0  0  0  0  0  0  0
    4.6609    0.1208    0.0000 H   0  0  0  0  0  0  0  0  0  0  0  0
    4.6609    0.9458    0.0000 H   0  0  0  0  0  0  0  0  0  0  0  0
    3.3631   -0.0500    0.0000 C   0  0  0  0  0  0  0  0  0  0  0  0
    3.3631   -0.8750    0.0000 O   0  0  0  0  0  0  0  0  0  0  0  0
    2.7797    0.5333    0.0000 N   0  0  0  0  0  0  0  0  0  0  0  0
    2.0521    0.1444    0.0000 H   0  0  0  0  0  0  0  0  0  0  0  0
    2.6009    1.4324    0.0000 H   0  0  0  0  0  0  0  0  0  0  0  0
    1.9341    1.9417    0.0000 C   0  0  0  0  0  0  0  0  0  0  0  0
    1.4766    1.2552    0.0000 H   0  0  0  0  0  0  0  0  0  0  0  0
    0.5052    1.1167    0.0000 H   0  0  0  0  0  0  0  0  0  0  0  0
  1  2  2  0  0  0  0
  2  3  1  0  0  0  0
  3  4  1  0  0  0  0
  4  5  2  0  0  0  0
  5  6  1  0  0  0  0
  5  7  1  0  0  0  0
  7  8  2  0  0  0  0
  8  9  1  0  0  0  0
  8 10  1  0  0  0  0
 10 11  2  0  0  0  0
  4 11  1  0  0  0  0
 11 12  1  0  0  0  0
  3 13  1  0  0  0  0
  3 14  1  0  0  0  0
  2 15  1  0  0  0  0
 15 16  1  0  0  0  0
 16 17  2  0  0  0  0
 17 18  1  0  0  0  0
 17 19  1  0  0  0  0
 19 20  1  0  0  0  0
 19 21  2  0  0  0  0
 21 22  1  0  0  0  0
 21 23  1  0  0  0  0
 23 24  1  0  0  0  0
 24 25  1  0  0  0  0
 25 26  1  0  0  0  0
 26 27  1  0  0  0  0
 26 28  1  0  0  0  0
 26 29  1  0  0  0  0
 29 30  2  0  0  0  0
 29 31  1  0  0  0  0
 25 31  1  0  0  0  0
 31 32  1  0  0  0  0
 25 33  1  0  0  0  0
 23 34  2  0  0  0  0
 16 34  1  0  0  0  0
 34 35  1  0  0  0  0
 15 36  1  0  0  0  0
M  END
> <Potency>
24.9466748468068

> <pIC50>
4.602987333484322

> <Outcome>
Inactive

> <is_active>
0

$$$$

  Mrv1921 08232120312D          

 37 38  0  0  0  0            999 V2000
    1.3993    8.1781    0.0000 O   0  0  0  0  0  0  0  0  0  0  0  0
    2.2220    8.1164    0.0000 C   0  0  0  0  0  0  0  0  0  0  0  0
    2.6867    8.7981    0.0000 C   0  0  0  0  0  0  0  0  0  0  0  0
    2.3288    9.5414    0.0000 Cl  0  0  0  0  0  0  0  0  0  0  0  0
    3.3943    8.3737    0.0000 H   0  0  0  0  0  0  0  0  0  0  0  0
    3.4496    9.1122    0.0000 H   0  0  0  0  0  0  0  0  0  0  0  0
    2.5800    7.3731    0.0000 N   0  0  0  0  0  0  0  0  0  0  0  0
    3.4050    7.3731    0.0000 C   0  0  0  0  0  0  0  0  0  0  0  0
    4.0500    7.8875    0.0000 H   0  0  0  0  0  0  0  0  0  0  0  0
    3.4050    8.1981    0.0000 H   0  0  0  0  0  0  0  0  0  0  0  0
    3.9193    6.7281    0.0000 C   0  0  0  0  0  0  0  0  0  0  0  0
    4.7237    6.5445    0.0000 H   0  0  0  0  0  0  0  0  0  0  0  0
    4.5644    7.2425    0.0000 H   0  0  0  0  0  0  0  0  0  0  0  0
    3.7358    5.9238    0.0000 C   0  0  0  0  0  0  0  0  0  0  0  0
    4.0937    5.1805    0.0000 H   0  0  0  0  0  0  0  0  0  0  0  0
    4.5401    5.7402    0.0000 H   0  0  0  0  0  0  0  0  0  0  0  0
    2.9925    5.5658    0.0000 N   0  0  0  0  0  0  0  0  0  0  0  0
    2.9925    4.7408    0.0000 S   0  0  0  0  0  0  0  0  0  0  0  0
    2.1675    4.7408    0.0000 O   0  0  0  0  0  0  0  0  0  0  0  0
    3.8175    4.7408    0.0000 O   0  0  0  0  0  0  0  0  0  0  0  0
    2.9925    3.9158    0.0000 C   0  0  0  0  0  0  0  0  0  0  0  0
    3.7069    3.5033    0.0000 C   0  0  0  0  0  0  0  0  0  0  0  0
    4.4214    3.9158    0.0000 H   0  0  0  0  0  0  0  0  0  0  0  0
    3.7069    2.6783    0.0000 C   0  0  0  0  0  0  0  0  0  0  0  0
    4.4214    2.2658    0.0000 F   0  0  0  0  0  0  0  0  0  0  0  0
    2.9925    2.2658    0.0000 C   0  0  0  0  0  0  0  0  0  0  0  0
    2.9925    1.4408    0.0000 H   0  0  0  0  0  0  0  0  0  0  0  0
    2.2780    2.6783    0.0000 C   0  0  0  0  0  0  0  0  0  0  0  0
    1.5635    2.2658    0.0000 H   0  0  0  0  0  0  0  0  0  0  0  0
    2.2780    3.5033    0.0000 C   0  0  0  0  0  0  0  0  0  0  0  0
    1.5635    3.9158    0.0000 F   0  0  0  0  0  0  0  0  0  0  0  0
    2.2492    5.9238    0.0000 C   0  0  0  0  0  0  0  0  0  0  0  0
    1.4448    5.7402    0.0000 H   0  0  0  0  0  0  0  0  0  0  0  0
    1.8912    5.1805    0.0000 H   0  0  0  0  0  0  0  0  0  0  0  0
    2.0656    6.7281    0.0000 C   0  0  0  0  0  0  0  0  0  0  0  0
    1.4206    7.2425    0.0000 H   0  0  0  0  0  0  0  0  0  0  0  0
    1.2613    6.5445    0.0000 H   0  0  0  0  0  0  0  0  0  0  0  0
  1  2  2  0  0  0  0
  2  3  1  0  0  0  0
  3  4  1  0  0  0  0
  3  5  1  0  0  0  0
  3  6  1  0  0  0  0
  2  7  1  0  0  0  0
  7  8  1  0  0  0  0
  8  9  1  0  0  0  0
  8 10  1  0  0  0  0
  8 11  1  0  0  0  0
 11 12  1  0  0  0  0
 11 13  1  0  0  0  0
 11 14  1  0  0  0  0
 14 15  1  0  0  0  0
 14 16  1  0  0  0  0
 14 17  1  0  0  0  0
 17 18  1  0  0  0  0
 18 19  2  0  0  0  0
 18 20  2  0  0  0  0
 18 21  1  0  0  0  0
 21 22  2  0  0  0  0
 22 23  1  0  0  0  0
 22 24  1  0  0  0  0
 24 25  1  0  0  0  0
 24 26  2  0  0  0  0
 26 27  1  0  0  0  0
 26 28  1  0  0  0  0
 28 29  1  0  0  0  0
 28 30  2  0  0  0  0
 21 30  1  0  0  0  0
 30 31  1  0  0  0  0
 17 32  1  0  0  0  0
 32 33  1  0  0  0  0
 32 34  1  0  0  0  0
 32 35  1  0  0  0  0
  7 35  1  0  0  0  0
 35 36  1  0  0  0  0
 35 37  1  0  0  0  0
M  END
> <Potency>
12.126216700727

> <pIC50>
4.91627467500184

> <Outcome>
Inactive

> <is_active>
0

$$$$

  Mrv1921 08232120312D          

 37 38  0  0  0  0            999 V2000
    1.3993    8.1781    0.0000 O   0  0  0  0  0  0  0  0  0  0  0  0
    2.2220    8.1164    0.0000 C   0  0  0  0  0  0  0  0  0  0  0  0
    2.6867    8.7981    0.0000 C   0  0  0  0  0  0  0  0  0  0  0  0
    2.3288    9.5414    0.0000 Cl  0  0  0  0  0  0  0  0  0  0  0  0
    3.3943    8.3737    0.0000 H   0  0  0  0  0  0  0  0  0  0  0  0
    3.4496    9.1122    0.0000 H   0  0  0  0  0  0  0  0  0  0  0  0
    2.5800    7.3731    0.0000 N   0  0  0  0  0  0  0  0  0  0  0  0
    3.4050    7.3731    0.0000 C   0  0  0  0  0  0  0  0  0  0  0  0
    4.0500    7.8875    0.0000 H   0  0  0  0  0  0  0  0  0  0  0  0
    3.4050    8.1981    0.0000 H   0  0  0  0  0  0  0  0  0  0  0  0
    3.9193    6.7281    0.0000 C   0  0  0  0  0  0  0  0  0  0  0  0
    4.7237    6.5445    0.0000 H   0  0  0  0  0  0  0  0  0  0  0  0
    4.5644    7.2425    0.0000 H   0  0  0  0  0  0  0  0  0  0  0  0
    3.7358    5.9238    0.0000 C   0  0  0  0  0  0  0  0  0  0  0  0
    4.0937    5.1805    0.0000 H   0  0  0  0  0  0  0  0  0  0  0  0
    4.5401    5.7402    0.0000 H   0  0  0  0  0  0  0  0  0  0  0  0
    2.9925    5.5658    0.0000 N   0  0  0  0  0  0  0  0  0  0  0  0
    2.9925    4.7408    0.0000 S   0  0  0  0  0  0  0  0  0  0  0  0
    2.1675    4.7408    0.0000 O   0  0  0  0  0  0  0  0  0  0  0  0
    3.8175    4.7408    0.0000 O   0  0  0  0  0  0  0  0  0  0  0  0
    2.9925    3.9158    0.0000 C   0  0  0  0  0  0  0  0  0  0  0  0
    3.7069    3.5033    0.0000 C   0  0  0  0  0  0  0  0  0  0  0  0
    4.4214    3.9158    0.0000 H   0  0  0  0  0  0  0  0  0  0  0  0
    3.7069    2.6783    0.0000 C   0  0  0  0  0  0  0  0  0  0  0  0
    4.4214    2.2658    0.0000 H   0  0  0  0  0  0  0  0  0  0  0  0
    2.9925    2.2658    0.0000 C   0  0  0  0  0  0  0  0  0  0  0  0
    2.9925    1.4408    0.0000 H   0  0  0  0  0  0  0  0  0  0  0  0
    2.2780    2.6783    0.0000 C   0  0  0  0  0  0  0  0  0  0  0  0
    1.5635    2.2658    0.0000 H   0  0  0  0  0  0  0  0  0  0  0  0
    2.2780    3.5033    0.0000 C   0  0  0  0  0  0  0  0  0  0  0  0
    1.5635    3.9158    0.0000 F   0  0  0  0  0  0  0  0  0  0  0  0
    2.2492    5.9238    0.0000 C   0  0  0  0  0  0  0  0  0  0  0  0
    1.4448    5.7402    0.0000 H   0  0  0  0  0  0  0  0  0  0  0  0
    1.8912    5.1805    0.0000 H   0  0  0  0  0  0  0  0  0  0  0  0
    2.0656    6.7281    0.0000 C   0  0  0  0  0  0  0  0  0  0  0  0
    1.4206    7.2425    0.0000 H   0  0  0  0  0  0  0  0  0  0  0  0
    1.2613    6.5445    0.0000 H   0  0  0  0  0  0  0  0  0  0  0  0
  1  2  2  0  0  0  0
  2  3  1  0  0  0  0
  3  4  1  0  0  0  0
  3  5  1  0  0  0  0
  3  6  1  0  0  0  0
  2  7  1  0  0  0  0
  7  8  1  0  0  0  0
  8  9  1  0  0  0  0
  8 10  1  0  0  0  0
  8 11  1  0  0  0  0
 11 12  1  0  0  0  0
 11 13  1  0  0  0  0
 11 14  1  0  0  0  0
 14 15  1  0  0  0  0
 14 16  1  0  0  0  0
 14 17  1  0  0  0  0
 17 18  1  0  0  0  0
 18 19  2  0  0  0  0
 18 20  2  0  0  0  0
 18 21  1  0  0  0  0
 21 22  2  0  0  0  0
 22 23  1  0  0  0  0
 22 24  1  0  0  0  0
 24 25  1  0  0  0  0
 24 26  2  0  0  0  0
 26 27  1  0  0  0  0
 26 28  1  0  0  0  0
 28 29  1  0  0  0  0
 28 30  2  0  0  0  0
 21 30  1  0  0  0  0
 30 31  1  0  0  0  0
 17 32  1  0  0  0  0
 32 33  1  0  0  0  0
 32 34  1  0  0  0  0
 32 35  1  0  0  0  0
  7 35  1  0  0  0  0
 35 36  1  0  0  0  0
 35 37  1  0  0  0  0
M  END
> <Potency>
15.6408761855788

> <pIC50>
4.805738921870572

> <Outcome>
Inactive

> <is_active>
0

$$$$

  Mrv1921 08232120312D          

 37 38  0  0  0  0            999 V2000
    1.3993    8.1781    0.0000 O   0  0  0  0  0  0  0  0  0  0  0  0
    2.2220    8.1164    0.0000 C   0  0  0  0  0  0  0  0  0  0  0  0
    2.6867    8.7981    0.0000 C   0  0  0  0  0  0  0  0  0  0  0  0
    2.3288    9.5414    0.0000 Cl  0  0  0  0  0  0  0  0  0  0  0  0
    3.3943    8.3737    0.0000 H   0  0  0  0  0  0  0  0  0  0  0  0
    3.4496    9.1122    0.0000 H   0  0  0  0  0  0  0  0  0  0  0  0
    2.5800    7.3731    0.0000 N   0  0  0  0  0  0  0  0  0  0  0  0
    3.4050    7.3731    0.0000 C   0  0  0  0  0  0  0  0  0  0  0  0
    4.0500    7.8875    0.0000 H   0  0  0  0  0  0  0  0  0  0  0  0
    3.4050    8.1981    0.0000 H   0  0  0  0  0  0  0  0  0  0  0  0
    3.9193    6.7281    0.0000 C   0  0  0  0  0  0  0  0  0  0  0  0
    4.7237    6.5445    0.0000 H   0  0  0  0  0  0  0  0  0  0  0  0
    4.5644    7.2425    0.0000 H   0  0  0  0  0  0  0  0  0  0  0  0
    3.7358    5.9238    0.0000 C   0  0  0  0  0  0  0  0  0  0  0  0
    4.0937    5.1805    0.0000 H   0  0  0  0  0  0  0  0  0  0  0  0
    4.5401    5.7402    0.0000 H   0  0  0  0  0  0  0  0  0  0  0  0
    2.9925    5.5658    0.0000 N   0  0  0  0  0  0  0  0  0  0  0  0
    2.9925    4.7408    0.0000 S   0  0  0  0  0  0  0  0  0  0  0  0
    2.1675    4.7408    0.0000 O   0  0  0  0  0  0  0  0  0  0  0  0
    3.8175    4.7408    0.0000 O   0  0  0  0  0  0  0  0  0  0  0  0
    2.9925    3.9158    0.0000 C   0  0  0  0  0  0  0  0  0  0  0  0
    3.7069    3.5033    0.0000 C   0  0  0  0  0  0  0  0  0  0  0  0
    4.4214    3.9158    0.0000 F   0  0  0  0  0  0  0  0  0  0  0  0
    3.7069    2.6783    0.0000 C   0  0  0  0  0  0  0  0  0  0  0  0
    4.4214    2.2658    0.0000 H   0  0  0  0  0  0  0  0  0  0  0  0
    2.9925    2.2658    0.0000 C   0  0  0  0  0  0  0  0  0  0  0  0
    2.9925    1.4408    0.0000 H   0  0  0  0  0  0  0  0  0  0  0  0
    2.2780    2.6783    0.0000 C   0  0  0  0  0  0  0  0  0  0  0  0
    1.5635    2.2658    0.0000 H   0  0  0  0  0  0  0  0  0  0  0  0
    2.2780    3.5033    0.0000 C   0  0  0  0  0  0  0  0  0  0  0  0
    1.5635    3.9158    0.0000 F   0  0  0  0  0  0  0  0  0  0  0  0
    2.2492    5.9238    0.0000 C   0  0  0  0  0  0  0  0  0  0  0  0
    1.4448    5.7402    0.0000 H   0  0  0  0  0  0  0  0  0  0  0  0
    1.8912    5.1805    0.0000 H   0  0  0  0  0  0  0  0  0  0  0  0
    2.0656    6.7281    0.0000 C   0  0  0  0  0  0  0  0  0  0  0  0
    1.4206    7.2425    0.0000 H   0  0  0  0  0  0  0  0  0  0  0  0
    1.2613    6.5445    0.0000 H   0  0  0  0  0  0  0  0  0  0  0  0
  1  2  2  0  0  0  0
  2  3  1  0  0  0  0
  3  4  1  0  0  0  0
  3  5  1  0  0  0  0
  3  6  1  0  0  0  0
  2  7  1  0  0  0  0
  7  8  1  0  0  0  0
  8  9  1  0  0  0  0
  8 10  1  0  0  0  0
  8 11  1  0  0  0  0
 11 12  1  0  0  0  0
 11 13  1  0  0  0  0
 11 14  1  0  0  0  0
 14 15  1  0  0  0  0
 14 16  1  0  0  0  0
 14 17  1  0  0  0  0
 17 18  1  0  0  0  0
 18 19  2  0  0  0  0
 18 20  2  0  0  0  0
 18 21  1  0  0  0  0
 21 22  2  0  0  0  0
 22 23  1  0  0  0  0
 22 24  1  0  0  0  0
 24 25  1  0  0  0  0
 24 26  2  0  0  0  0
 26 27  1  0  0  0  0
 26 28  1  0  0  0  0
 28 29  1  0  0  0  0
 28 30  2  0  0  0  0
 21 30  1  0  0  0  0
 30 31  1  0  0  0  0
 17 32  1  0  0  0  0
 32 33  1  0  0  0  0
 32 34  1  0  0  0  0
 32 35  1  0  0  0  0
  7 35  1  0  0  0  0
 35 36  1  0  0  0  0
 35 37  1  0  0  0  0
M  END
> <Potency>
20.1983860339707

> <pIC50>
4.6946833317684336

> <Outcome>
Inactive

> <is_active>
0

$$$$

  Mrv1921 08232120312D          

 37 38  0  0  0  0            999 V2000
    1.3993    8.1781    0.0000 O   0  0  0  0  0  0  0  0  0  0  0  0
    2.2220    8.1164    0.0000 C   0  0  0  0  0  0  0  0  0  0  0  0
    2.6867    8.7981    0.0000 C   0  0  0  0  0  0  0  0  0  0  0  0
    2.3288    9.5414    0.0000 Cl  0  0  0  0  0  0  0  0  0  0  0  0
    3.3943    8.3737    0.0000 H   0  0  0  0  0  0  0  0  0  0  0  0
    3.4496    9.1122    0.0000 H   0  0  0  0  0  0  0  0  0  0  0  0
    2.5800    7.3731    0.0000 N   0  0  0  0  0  0  0  0  0  0  0  0
    3.4050    7.3731    0.0000 C   0  0  0  0  0  0  0  0  0  0  0  0
    4.0500    7.8875    0.0000 H   0  0  0  0  0  0  0  0  0  0  0  0
    3.4050    8.1981    0.0000 H   0  0  0  0  0  0  0  0  0  0  0  0
    3.9193    6.7281    0.0000 C   0  0  0  0  0  0  0  0  0  0  0  0
    4.7237    6.5445    0.0000 H   0  0  0  0  0  0  0  0  0  0  0  0
    4.5644    7.2425    0.0000 H   0  0  0  0  0  0  0  0  0  0  0  0
    3.7358    5.9238    0.0000 C   0  0  0  0  0  0  0  0  0  0  0  0
    4.0937    5.1805    0.0000 H   0  0  0  0  0  0  0  0  0  0  0  0
    4.5401    5.7402    0.0000 H   0  0  0  0  0  0  0  0  0  0  0  0
    2.9925    5.5658    0.0000 N   0  0  0  0  0  0  0  0  0  0  0  0
    2.9925    4.7408    0.0000 S   0  0  0  0  0  0  0  0  0  0  0  0
    2.1675    4.7408    0.0000 O   0  0  0  0  0  0  0  0  0  0  0  0
    3.8175    4.7408    0.0000 O   0  0  0  0  0  0  0  0  0  0  0  0
    2.9925    3.9158    0.0000 C   0  0  0  0  0  0  0  0  0  0  0  0
    3.7069    3.5033    0.0000 C   0  0  0  0  0  0  0  0  0  0  0  0
    4.4214    3.9158    0.0000 H   0  0  0  0  0  0  0  0  0  0  0  0
    3.7069    2.6783    0.0000 C   0  0  0  0  0  0  0  0  0  0  0  0
    4.4214    2.2658    0.0000 H   0  0  0  0  0  0  0  0  0  0  0  0
    2.9925    2.2658    0.0000 C   0  0  0  0  0  0  0  0  0  0  0  0
    2.9925    1.4408    0.0000 H   0  0  0  0  0  0  0  0  0  0  0  0
    2.2780    2.6783    0.0000 C   0  0  0  0  0  0  0  0  0  0  0  0
    1.5635    2.2658    0.0000 F   0  0  0  0  0  0  0  0  0  0  0  0
    2.2780    3.5033    0.0000 C   0  0  0  0  0  0  0  0  0  0  0  0
    1.5635    3.9158    0.0000 H   0  0  0  0  0  0  0  0  0  0  0  0
    2.2492    5.9238    0.0000 C   0  0  0  0  0  0  0  0  0  0  0  0
    1.4448    5.7402    0.0000 H   0  0  0  0  0  0  0  0  0  0  0  0
    1.8912    5.1805    0.0000 H   0  0  0  0  0  0  0  0  0  0  0  0
    2.0656    6.7281    0.0000 C   0  0  0  0  0  0  0  0  0  0  0  0
    1.4206    7.2425    0.0000 H   0  0  0  0  0  0  0  0  0  0  0  0
    1.2613    6.5445    0.0000 H   0  0  0  0  0  0  0  0  0  0  0  0
  1  2  2  0  0  0  0
  2  3  1  0  0  0  0
  3  4  1  0  0  0  0
  3  5  1  0  0  0  0
  3  6  1  0  0  0  0
  2  7  1  0  0  0  0
  7  8  1  0  0  0  0
  8  9  1  0  0  0  0
  8 10  1  0  0  0  0
  8 11  1  0  0  0  0
 11 12  1  0  0  0  0
 11 13  1  0  0  0  0
 11 14  1  0  0  0  0
 14 15  1  0  0  0  0
 14 16  1  0  0  0  0
 14 17  1  0  0  0  0
 17 18  1  0  0  0  0
 18 19  2  0  0  0  0
 18 20  2  0  0  0  0
 18 21  1  0  0  0  0
 21 22  2  0  0  0  0
 22 23  1  0  0  0  0
 22 24  1  0  0  0  0
 24 25  1  0  0  0  0
 24 26  2  0  0  0  0
 26 27  1  0  0  0  0
 26 28  1  0  0  0  0
 28 29  1  0  0  0  0
 28 30  2  0  0  0  0
 21 30  1  0  0  0  0
 30 31  1  0  0  0  0
 17 32  1  0  0  0  0
 32 33  1  0  0  0  0
 32 34  1  0  0  0  0
 32 35  1  0  0  0  0
  7 35  1  0  0  0  0
 35 36  1  0  0  0  0
 35 37  1  0  0  0  0
M  END
> <Potency>
17.2367639001554

> <pIC50>
4.763544267062744

> <Outcome>
Inactive

> <is_active>
0

$$$$

  Mrv1921 08232120312D          

 31 32  0  0  0  0            999 V2000
    2.8579   -1.6500    0.0000 C   0  0  0  0  0  0  0  0  0  0  0  0
    2.8579   -2.4750    0.0000 C   0  0  0  0  0  0  0  0  0  0  0  0
    3.5724   -2.8875    0.0000 C   0  0  0  0  0  0  0  0  0  0  0  0
    4.3974   -2.8875    0.0000 H   0  0  0  0  0  0  0  0  0  0  0  0
    3.5724   -3.7125    0.0000 C   0  0  0  0  0  0  0  0  0  0  0  0
    4.2868   -4.1250    0.0000 H   0  0  0  0  0  0  0  0  0  0  0  0
    2.8579   -4.1250    0.0000 N   0  0  0  0  0  0  0  0  0  0  0  0
    2.1434   -3.7125    0.0000 C   0  0  0  0  0  0  0  0  0  0  0  0
    1.4289   -4.1250    0.0000 H   0  0  0  0  0  0  0  0  0  0  0  0
    2.1434   -2.8875    0.0000 C   0  0  0  0  0  0  0  0  0  0  0  0
    1.4289   -2.4750    0.0000 C   0  0  0  0  0  0  0  0  0  0  0  0
    1.4289   -1.6500    0.0000 C   0  0  0  0  0  0  0  0  0  0  0  0
    2.1434   -1.2375    0.0000 O   0  0  0  0  0  0  0  0  0  0  0  0
    0.7145   -1.2375    0.0000 N   0  0  0  0  0  0  0  0  0  0  0  0
    0.7145   -0.4125    0.0000 C   0  0  0  0  0  0  0  0  0  0  0  0
    0.0000    0.0000    0.0000 C   0  0  0  0  0  0  0  0  0  0  0  0
   -0.7145   -0.4125    0.0000 H   0  0  0  0  0  0  0  0  0  0  0  0
    0.0000    0.8250    0.0000 C   0  0  0  0  0  0  0  0  0  0  0  0
   -0.7145    1.2375    0.0000 H   0  0  0  0  0  0  0  0  0  0  0  0
    0.7145    1.2375    0.0000 C   0  0  0  0  0  0  0  0  0  0  0  0
    0.7145    2.0625    0.0000 H   0  0  0  0  0  0  0  0  0  0  0  0
    1.4289    0.8250    0.0000 C   0  0  0  0  0  0  0  0  0  0  0  0
    2.1434    1.2375    0.0000 Cl  0  0  0  0  0  0  0  0  0  0  0  0
    1.4289    0.0000    0.0000 C   0  0  0  0  0  0  0  0  0  0  0  0
    2.1434   -0.4125    0.0000 H   0  0  0  0  0  0  0  0  0  0  0  0
    0.0000   -1.6500    0.0000 H   0  0  0  0  0  0  0  0  0  0  0  0
    0.6053   -2.5230    0.0000 H   0  0  0  0  0  0  0  0  0  0  0  0
    0.9756   -3.1643    0.0000 H   0  0  0  0  0  0  0  0  0  0  0  0
    3.5724   -2.0625    0.0000 H   0  0  0  0  0  0  0  0  0  0  0  0
    3.5724   -1.2375    0.0000 H   0  0  0  0  0  0  0  0  0  0  0  0
    2.8579   -0.8250    0.0000 H   0  0  0  0  0  0  0  0  0  0  0  0
  1  2  1  0  0  0  0
  2  3  2  0  0  0  0
  3  4  1  0  0  0  0
  3  5  1  0  0  0  0
  5  6  1  0  0  0  0
  5  7  2  0  0  0  0
  7  8  1  0  0  0  0
  8  9  1  0  0  0  0
  8 10  2  0  0  0  0
  2 10  1  0  0  0  0
 10 11  1  0  0  0  0
 11 12  1  0  0  0  0
 12 13  2  0  0  0  0
 12 14  1  0  0  0  0
 14 15  1  0  0  0  0
 15 16  2  0  0  0  0
 16 17  1  0  0  0  0
 16 18  1  0  0  0  0
 18 19  1  0  0  0  0
 18 20  2  0  0  0  0
 20 21  1  0  0  0  0
 20 22  1  0  0  0  0
 22 23  1  0  0  0  0
 22 24  2  0  0  0  0
 15 24  1  0  0  0  0
 24 25  1  0  0  0  0
 14 26  1  0  0  0  0
 11 27  1  0  0  0  0
 11 28  1  0  0  0  0
  1 29  1  0  0  0  0
  1 30  1  0  0  0  0
  1 31  1  0  0  0  0
M  END
> <Potency>
29.8595914518367

> <pIC50>
4.524916138721734

> <Outcome>
Inactive

> <is_active>
0

$$$$

  Mrv1921 08232120312D          

 36 38  0  0  0  0            999 V2000
    1.7250   -0.1085    0.0000 C   0  0  0  0  0  0  0  0  0  0  0  0
    2.3381   -0.6605    0.0000 C   0  0  0  0  0  0  0  0  0  0  0  0
    3.1227   -0.4056    0.0000 C   0  0  0  0  0  0  0  0  0  0  0  0
    3.6842    0.1989    0.0000 H   0  0  0  0  0  0  0  0  0  0  0  0
    3.7358   -0.9576    0.0000 C   0  0  0  0  0  0  0  0  0  0  0  0
    4.5204   -0.7027    0.0000 H   0  0  0  0  0  0  0  0  0  0  0  0
    3.5642   -1.7646    0.0000 N   0  0  0  0  0  0  0  0  0  0  0  0
    2.7796   -2.0195    0.0000 C   0  0  0  0  0  0  0  0  0  0  0  0
    2.6081   -2.8265    0.0000 H   0  0  0  0  0  0  0  0  0  0  0  0
    2.1665   -1.4675    0.0000 C   0  0  0  0  0  0  0  0  0  0  0  0
    1.3819   -1.7224    0.0000 N   0  0  0  0  0  0  0  0  0  0  0  0
    1.1270   -2.5070    0.0000 C   0  0  0  0  0  0  0  0  0  0  0  0
    1.2418   -3.3240    0.0000 H   0  0  0  0  0  0  0  0  0  0  0  0
    1.8685   -2.8687    0.0000 H   0  0  0  0  0  0  0  0  0  0  0  0
    0.3020   -2.5070    0.0000 C   0  0  0  0  0  0  0  0  0  0  0  0
   -0.4395   -2.8687    0.0000 H   0  0  0  0  0  0  0  0  0  0  0  0
    0.1872   -3.3240    0.0000 H   0  0  0  0  0  0  0  0  0  0  0  0
    0.0470   -1.7224    0.0000 C   0  0  0  0  0  0  0  0  0  0  0  0
   -0.7376   -1.4675    0.0000 C   0  0  0  0  0  0  0  0  0  0  0  0
   -1.3507   -2.0195    0.0000 C   0  0  0  0  0  0  0  0  0  0  0  0
   -1.1792   -2.8265    0.0000 H   0  0  0  0  0  0  0  0  0  0  0  0
   -2.1353   -1.7646    0.0000 C   0  0  0  0  0  0  0  0  0  0  0  0
   -2.7484   -2.3166    0.0000 H   0  0  0  0  0  0  0  0  0  0  0  0
   -2.3068   -0.9576    0.0000 C   0  0  0  0  0  0  0  0  0  0  0  0
   -3.0915   -0.7027    0.0000 H   0  0  0  0  0  0  0  0  0  0  0  0
   -1.6937   -0.4056    0.0000 C   0  0  0  0  0  0  0  0  0  0  0  0
   -1.8653    0.4014    0.0000 Cl  0  0  0  0  0  0  0  0  0  0  0  0
   -0.9091   -0.6605    0.0000 C   0  0  0  0  0  0  0  0  0  0  0  0
   -0.6636    0.1271    0.0000 H   0  0  0  0  0  0  0  0  0  0  0  0
   -0.0820   -0.9076    0.0000 H   0  0  0  0  0  0  0  0  0  0  0  0
    0.7145   -1.2375    0.0000 S   0  0  0  0  0  0  0  0  0  0  0  0
    0.3095   -0.5187    0.0000 O   0  0  0  0  0  0  0  0  0  0  0  0
    1.1195   -0.5187    0.0000 O   0  0  0  0  0  0  0  0  0  0  0  0
    2.4897    0.2010    0.0000 H   0  0  0  0  0  0  0  0  0  0  0  0
    1.7816    0.7146    0.0000 H   0  0  0  0  0  0  0  0  0  0  0  0
    1.0098    0.3029    0.0000 H   0  0  0  0  0  0  0  0  0  0  0  0
  1  2  1  0  0  0  0
  2  3  2  0  0  0  0
  3  4  1  0  0  0  0
  3  5  1  0  0  0  0
  5  6  1  0  0  0  0
  5  7  2  0  0  0  0
  7  8  1  0  0  0  0
  8  9  1  0  0  0  0
  8 10  2  0  0  0  0
  2 10  1  0  0  0  0
 10 11  1  0  0  0  0
 11 12  1  0  0  0  0
 12 13  1  0  0  0  0
 12 14  1  0  0  0  0
 12 15  1  0  0  0  0
 15 16  1  0  0  0  0
 15 17  1  0  0  0  0
 15 18  1  0  0  0  0
 18 19  1  0  0  0  0
 19 20  2  0  0  0  0
 20 21  1  0  0  0  0
 20 22  1  0  0  0  0
 22 23  1  0  0  0  0
 22 24  2  0  0  0  0
 24 25  1  0  0  0  0
 24 26  1  0  0  0  0
 26 27  1  0  0  0  0
 26 28  2  0  0  0  0
 19 28  1  0  0  0  0
 28 29  1  0  0  0  0
 18 30  1  0  0  0  0
 18 31  1  0  0  0  0
 11 31  1  0  0  0  0
 31 32  2  0  0  0  0
 31 33  2  0  0  0  0
  1 34  1  0  0  0  0
  1 35  1  0  0  0  0
  1 36  1  0  0  0  0
M  END
> <Potency>
85.0199239771583

> <pIC50>
4.070479287704763

> <Outcome>
Inactive

> <is_active>
0

$$$$

  Mrv1921 08232120312D          

 48 51  0  0  0  0            999 V2000
   -3.5724   -6.1875    0.0000 C   0  0  0  0  0  0  0  0  0  0  0  0
   -3.5724   -5.3625    0.0000 O   0  0  0  0  0  0  0  0  0  0  0  0
   -2.8579   -4.9500    0.0000 C   0  0  0  0  0  0  0  0  0  0  0  0
   -2.8579   -4.1250    0.0000 C   0  0  0  0  0  0  0  0  0  0  0  0
   -3.5724   -3.7125    0.0000 H   0  0  0  0  0  0  0  0  0  0  0  0
   -2.1434   -3.7125    0.0000 C   0  0  0  0  0  0  0  0  0  0  0  0
   -2.1434   -2.8875    0.0000 H   0  0  0  0  0  0  0  0  0  0  0  0
   -1.4289   -4.1250    0.0000 C   0  0  0  0  0  0  0  0  0  0  0  0
   -0.7145   -3.7125    0.0000 N   0  0  0  0  0  0  0  0  0  0  0  0
   -0.7145   -2.8875    0.0000 C   0  0  0  0  0  0  0  0  0  0  0  0
   -1.1678   -2.1982    0.0000 H   0  0  0  0  0  0  0  0  0  0  0  0
   -1.5381   -2.8395    0.0000 H   0  0  0  0  0  0  0  0  0  0  0  0
    0.0000   -2.4750    0.0000 C   0  0  0  0  0  0  0  0  0  0  0  0
    0.3703   -1.7378    0.0000 H   0  0  0  0  0  0  0  0  0  0  0  0
   -0.3703   -1.7378    0.0000 H   0  0  0  0  0  0  0  0  0  0  0  0
    0.7145   -2.8875    0.0000 N   0  0  0  0  0  0  0  0  0  0  0  0
    1.4289   -2.4750    0.0000 C   0  0  0  0  0  0  0  0  0  0  0  0
    2.1434   -2.8875    0.0000 O   0  0  0  0  0  0  0  0  0  0  0  0
    1.4289   -1.6500    0.0000 C   0  0  0  0  0  0  0  0  0  0  0  0
    0.7145   -1.2375    0.0000 C   0  0  0  0  0  0  0  0  0  0  0  0
   -0.0734   -0.9926    0.0000 H   0  0  0  0  0  0  0  0  0  0  0  0
    0.7145   -0.4125    0.0000 C   0  0  0  0  0  0  0  0  0  0  0  0
    0.0000    0.0000    0.0000 O   0  0  0  0  0  0  0  0  0  0  0  0
    1.4289    0.0000    0.0000 N   0  0  0  0  0  0  0  0  0  0  0  0
    1.4289    0.8250    0.0000 H   0  0  0  0  0  0  0  0  0  0  0  0
    2.1434   -0.4125    0.0000 C   0  0  0  0  0  0  0  0  0  0  0  0
    2.8579    0.0000    0.0000 C   0  0  0  0  0  0  0  0  0  0  0  0
    3.5724   -0.4125    0.0000 C   0  0  0  0  0  0  0  0  0  0  0  0
    3.5724   -1.2375    0.0000 C   0  0  0  0  0  0  0  0  0  0  0  0
    2.8579   -1.6500    0.0000 C   0  0  0  0  0  0  0  0  0  0  0  0
    2.8579   -2.4750    0.0000 H   0  0  0  0  0  0  0  0  0  0  0  0
    2.1434   -1.2375    0.0000 C   0  0  0  0  0  0  0  0  0  0  0  0
    4.2868   -1.6500    0.0000 H   0  0  0  0  0  0  0  0  0  0  0  0
    4.2868   -0.0000    0.0000 H   0  0  0  0  0  0  0  0  0  0  0  0
    2.8579    0.8250    0.0000 H   0  0  0  0  0  0  0  0  0  0  0  0
    0.7145   -3.7125    0.0000 C   0  0  0  0  0  0  0  0  0  0  0  0
    1.1678   -4.4018    0.0000 H   0  0  0  0  0  0  0  0  0  0  0  0
    1.5381   -3.7605    0.0000 H   0  0  0  0  0  0  0  0  0  0  0  0
    0.0000   -4.1250    0.0000 C   0  0  0  0  0  0  0  0  0  0  0  0
   -0.3703   -4.8622    0.0000 H   0  0  0  0  0  0  0  0  0  0  0  0
    0.3703   -4.8622    0.0000 H   0  0  0  0  0  0  0  0  0  0  0  0
   -1.4289   -4.9500    0.0000 C   0  0  0  0  0  0  0  0  0  0  0  0
   -0.7145   -5.3625    0.0000 H   0  0  0  0  0  0  0  0  0  0  0  0
   -2.1434   -5.3625    0.0000 C   0  0  0  0  0  0  0  0  0  0  0  0
   -2.1434   -6.1875    0.0000 H   0  0  0  0  0  0  0  0  0  0  0  0
   -4.3974   -6.1875    0.0000 H   0  0  0  0  0  0  0  0  0  0  0  0
   -3.5724   -7.0125    0.0000 H   0  0  0  0  0  0  0  0  0  0  0  0
   -2.7474   -6.1875    0.0000 H   0  0  0  0  0  0  0  0  0  0  0  0
  1  2  1  0  0  0  0
  2  3  1  0  0  0  0
  3  4  2  0  0  0  0
  4  5  1  0  0  0  0
  4  6  1  0  0  0  0
  6  7  1  0  0  0  0
  6  8  2  0  0  0  0
  8  9  1  0  0  0  0
  9 10  1  0  0  0  0
 10 11  1  0  0  0  0
 10 12  1  0  0  0  0
 10 13  1  0  0  0  0
 13 14  1  0  0  0  0
 13 15  1  0  0  0  0
 13 16  1  0  0  0  0
 16 17  1  0  0  0  0
 17 18  2  0  0  0  0
 17 19  1  0  0  0  0
 19 20  4  0  0  0  0
 20 21  1  0  0  0  0
 20 22  4  0  0  0  0
 22 23  2  0  0  0  0
 22 24  4  0  0  0  0
 24 25  1  0  0  0  0
 24 26  4  0  0  0  0
 26 27  4  0  0  0  0
 27 28  4  0  0  0  0
 28 29  4  0  0  0  0
 29 30  4  0  0  0  0
 30 31  1  0  0  0  0
 30 32  4  0  0  0  0
 19 32  4  0  0  0  0
 26 32  4  0  0  0  0
 29 33  1  0  0  0  0
 28 34  1  0  0  0  0
 27 35  1  0  0  0  0
 16 36  1  0  0  0  0
 36 37  1  0  0  0  0
 36 38  1  0  0  0  0
 36 39  1  0  0  0  0
  9 39  1  0  0  0  0
 39 40  1  0  0  0  0
 39 41  1  0  0  0  0
  8 42  1  0  0  0  0
 42 43  1  0  0  0  0
 42 44  2  0  0  0  0
  3 44  1  0  0  0  0
 44 45  1  0  0  0  0
  1 46  1  0  0  0  0
  1 47  1  0  0  0  0
  1 48  1  0  0  0  0
M  END
> <Potency>
14.6738706575817

> <pIC50>
4.833455313320813

> <Outcome>
Inactive

> <is_active>
0

$$$$

  Mrv1921 08232120312D          

 48 51  0  0  0  0            999 V2000
   -0.7145   -6.1875    0.0000 C   0  0  0  0  0  0  0  0  0  0  0  0
   -0.7145   -5.3625    0.0000 O   0  0  0  0  0  0  0  0  0  0  0  0
   -1.4289   -4.9500    0.0000 C   0  0  0  0  0  0  0  0  0  0  0  0
   -2.1434   -5.3625    0.0000 C   0  0  0  0  0  0  0  0  0  0  0  0
   -2.1434   -6.1875    0.0000 H   0  0  0  0  0  0  0  0  0  0  0  0
   -2.8579   -4.9500    0.0000 C   0  0  0  0  0  0  0  0  0  0  0  0
   -3.5724   -5.3625    0.0000 H   0  0  0  0  0  0  0  0  0  0  0  0
   -2.8579   -4.1250    0.0000 C   0  0  0  0  0  0  0  0  0  0  0  0
   -3.5724   -3.7125    0.0000 H   0  0  0  0  0  0  0  0  0  0  0  0
   -2.1434   -3.7125    0.0000 C   0  0  0  0  0  0  0  0  0  0  0  0
   -2.1434   -2.8875    0.0000 H   0  0  0  0  0  0  0  0  0  0  0  0
   -1.4289   -4.1250    0.0000 C   0  0  0  0  0  0  0  0  0  0  0  0
   -0.7145   -3.7125    0.0000 N   0  0  0  0  0  0  0  0  0  0  0  0
   -0.7145   -2.8875    0.0000 C   0  0  0  0  0  0  0  0  0  0  0  0
   -1.1678   -2.1982    0.0000 H   0  0  0  0  0  0  0  0  0  0  0  0
   -1.5381   -2.8395    0.0000 H   0  0  0  0  0  0  0  0  0  0  0  0
    0.0000   -2.4750    0.0000 C   0  0  0  0  0  0  0  0  0  0  0  0
    0.3703   -1.7378    0.0000 H   0  0  0  0  0  0  0  0  0  0  0  0
   -0.3703   -1.7378    0.0000 H   0  0  0  0  0  0  0  0  0  0  0  0
    0.7145   -2.8875    0.0000 N   0  0  0  0  0  0  0  0  0  0  0  0
    1.4289   -2.4750    0.0000 C   0  0  0  0  0  0  0  0  0  0  0  0
    2.1434   -2.8875    0.0000 O   0  0  0  0  0  0  0  0  0  0  0  0
    1.4289   -1.6500    0.0000 C   0  0  0  0  0  0  0  0  0  0  0  0
    0.7145   -1.2375    0.0000 C   0  0  0  0  0  0  0  0  0  0  0  0
   -0.0734   -0.9926    0.0000 H   0  0  0  0  0  0  0  0  0  0  0  0
    0.7145   -0.4125    0.0000 C   0  0  0  0  0  0  0  0  0  0  0  0
    0.0000    0.0000    0.0000 O   0  0  0  0  0  0  0  0  0  0  0  0
    1.4289    0.0000    0.0000 N   0  0  0  0  0  0  0  0  0  0  0  0
    1.4289    0.8250    0.0000 H   0  0  0  0  0  0  0  0  0  0  0  0
    2.1434   -0.4125    0.0000 C   0  0  0  0  0  0  0  0  0  0  0  0
    2.8579    0.0000    0.0000 C   0  0  0  0  0  0  0  0  0  0  0  0
    3.5724   -0.4125    0.0000 C   0  0  0  0  0  0  0  0  0  0  0  0
    3.5724   -1.2375    0.0000 C   0  0  0  0  0  0  0  0  0  0  0  0
    2.8579   -1.6500    0.0000 C   0  0  0  0  0  0  0  0  0  0  0  0
    2.8579   -2.4750    0.0000 H   0  0  0  0  0  0  0  0  0  0  0  0
    2.1434   -1.2375    0.0000 C   0  0  0  0  0  0  0  0  0  0  0  0
    4.2868   -1.6500    0.0000 H   0  0  0  0  0  0  0  0  0  0  0  0
    4.2868   -0.0000    0.0000 H   0  0  0  0  0  0  0  0  0  0  0  0
    2.8579    0.8250    0.0000 H   0  0  0  0  0  0  0  0  0  0  0  0
    0.7145   -3.7125    0.0000 C   0  0  0  0  0  0  0  0  0  0  0  0
    1.1678   -4.4018    0.0000 H   0  0  0  0  0  0  0  0  0  0  0  0
    1.5381   -3.7605    0.0000 H   0  0  0  0  0  0  0  0  0  0  0  0
    0.0000   -4.1250    0.0000 C   0  0  0  0  0  0  0  0  0  0  0  0
   -0.3703   -4.8622    0.0000 H   0  0  0  0  0  0  0  0  0  0  0  0
    0.3703   -4.8622    0.0000 H   0  0  0  0  0  0  0  0  0  0  0  0
   -1.5395   -6.1875    0.0000 H   0  0  0  0  0  0  0  0  0  0  0  0
   -0.7145   -7.0125    0.0000 H   0  0  0  0  0  0  0  0  0  0  0  0
    0.1105   -6.1875    0.0000 H   0  0  0  0  0  0  0  0  0  0  0  0
  1  2  1  0  0  0  0
  2  3  1  0  0  0  0
  3  4  2  0  0  0  0
  4  5  1  0  0  0  0
  4  6  1  0  0  0  0
  6  7  1  0  0  0  0
  6  8  2  0  0  0  0
  8  9  1  0  0  0  0
  8 10  1  0  0  0  0
 10 11  1  0  0  0  0
 10 12  2  0  0  0  0
  3 12  1  0  0  0  0
 12 13  1  0  0  0  0
 13 14  1  0  0  0  0
 14 15  1  0  0  0  0
 14 16  1  0  0  0  0
 14 17  1  0  0  0  0
 17 18  1  0  0  0  0
 17 19  1  0  0  0  0
 17 20  1  0  0  0  0
 20 21  1  0  0  0  0
 21 22  2  0  0  0  0
 21 23  1  0  0  0  0
 23 24  4  0  0  0  0
 24 25  1  0  0  0  0
 24 26  4  0  0  0  0
 26 27  2  0  0  0  0
 26 28  4  0  0  0  0
 28 29  1  0  0  0  0
 28 30  4  0  0  0  0
 30 31  4  0  0  0  0
 31 32  4  0  0  0  0
 32 33  4  0  0  0  0
 33 34  4  0  0  0  0
 34 35  1  0  0  0  0
 34 36  4  0  0  0  0
 23 36  4  0  0  0  0
 30 36  4  0  0  0  0
 33 37  1  0  0  0  0
 32 38  1  0  0  0  0
 31 39  1  0  0  0  0
 20 40  1  0  0  0  0
 40 41  1  0  0  0  0
 40 42  1  0  0  0  0
 40 43  1  0  0  0  0
 13 43  1  0  0  0  0
 43 44  1  0  0  0  0
 43 45  1  0  0  0  0
  1 46  1  0  0  0  0
  1 47  1  0  0  0  0
  1 48  1  0  0  0  0
M  END
> <Potency>
32.7591022474999

> <pIC50>
4.484668008447005

> <Outcome>
Inactive

> <is_active>
0

$$$$

  Mrv1921 08232120312D          

 44 47  0  0  0  0            999 V2000
    2.1434   -2.8875    0.0000 O   0  0  0  0  0  0  0  0  0  0  0  0
    1.4289   -2.4750    0.0000 C   0  0  0  0  0  0  0  0  0  0  0  0
    1.4289   -1.6500    0.0000 C   0  0  0  0  0  0  0  0  0  0  0  0
    0.7145   -1.2375    0.0000 C   0  0  0  0  0  0  0  0  0  0  0  0
    0.0000   -1.6500    0.0000 H   0  0  0  0  0  0  0  0  0  0  0  0
    0.7145   -0.4125    0.0000 C   0  0  0  0  0  0  0  0  0  0  0  0
    0.0000    0.0000    0.0000 O   0  0  0  0  0  0  0  0  0  0  0  0
    1.4289    0.0000    0.0000 N   0  0  0  0  0  0  0  0  0  0  0  0
    1.4289    0.8250    0.0000 H   0  0  0  0  0  0  0  0  0  0  0  0
    2.1434   -0.4125    0.0000 C   0  0  0  0  0  0  0  0  0  0  0  0
    2.8579    0.0000    0.0000 C   0  0  0  0  0  0  0  0  0  0  0  0
    3.5724   -0.4125    0.0000 C   0  0  0  0  0  0  0  0  0  0  0  0
    3.5724   -1.2375    0.0000 C   0  0  0  0  0  0  0  0  0  0  0  0
    2.8579   -1.6500    0.0000 C   0  0  0  0  0  0  0  0  0  0  0  0
    2.8579   -2.4750    0.0000 H   0  0  0  0  0  0  0  0  0  0  0  0
    2.1434   -1.2375    0.0000 C   0  0  0  0  0  0  0  0  0  0  0  0
    4.2868   -1.6500    0.0000 H   0  0  0  0  0  0  0  0  0  0  0  0
    4.2868   -0.0000    0.0000 H   0  0  0  0  0  0  0  0  0  0  0  0
    2.8579    0.8250    0.0000 H   0  0  0  0  0  0  0  0  0  0  0  0
    0.7145   -2.8875    0.0000 N   0  0  0  0  0  0  0  0  0  0  0  0
    0.7145   -3.7125    0.0000 C   0  0  0  0  0  0  0  0  0  0  0  0
    1.1678   -4.4018    0.0000 H   0  0  0  0  0  0  0  0  0  0  0  0
    1.5381   -3.7605    0.0000 H   0  0  0  0  0  0  0  0  0  0  0  0
    0.0000   -4.1250    0.0000 C   0  0  0  0  0  0  0  0  0  0  0  0
   -0.3703   -4.8622    0.0000 H   0  0  0  0  0  0  0  0  0  0  0  0
    0.3703   -4.8622    0.0000 H   0  0  0  0  0  0  0  0  0  0  0  0
   -0.7145   -3.7125    0.0000 N   0  0  0  0  0  0  0  0  0  0  0  0
   -1.4289   -4.1250    0.0000 C   0  0  0  0  0  0  0  0  0  0  0  0
   -1.4289   -4.9500    0.0000 C   0  0  0  0  0  0  0  0  0  0  0  0
   -0.7145   -5.3625    0.0000 H   0  0  0  0  0  0  0  0  0  0  0  0
   -2.1434   -5.3625    0.0000 C   0  0  0  0  0  0  0  0  0  0  0  0
   -2.1434   -6.1875    0.0000 H   0  0  0  0  0  0  0  0  0  0  0  0
   -2.8579   -4.9500    0.0000 C   0  0  0  0  0  0  0  0  0  0  0  0
   -3.5724   -5.3625    0.0000 F   0  0  0  0  0  0  0  0  0  0  0  0
   -2.8579   -4.1250    0.0000 C   0  0  0  0  0  0  0  0  0  0  0  0
   -3.5724   -3.7125    0.0000 H   0  0  0  0  0  0  0  0  0  0  0  0
   -2.1434   -3.7125    0.0000 C   0  0  0  0  0  0  0  0  0  0  0  0
   -2.1434   -2.8875    0.0000 H   0  0  0  0  0  0  0  0  0  0  0  0
   -0.7145   -2.8875    0.0000 C   0  0  0  0  0  0  0  0  0  0  0  0
   -1.1678   -2.1982    0.0000 H   0  0  0  0  0  0  0  0  0  0  0  0
   -1.5381   -2.8395    0.0000 H   0  0  0  0  0  0  0  0  0  0  0  0
    0.0000   -2.4750    0.0000 C   0  0  0  0  0  0  0  0  0  0  0  0
    0.7145   -2.0625    0.0000 H   0  0  0  0  0  0  0  0  0  0  0  0
    0.0000   -3.3000    0.0000 H   0  0  0  0  0  0  0  0  0  0  0  0
  1  2  2  0  0  0  0
  2  3  1  0  0  0  0
  3  4  4  0  0  0  0
  4  5  1  0  0  0  0
  4  6  4  0  0  0  0
  6  7  2  0  0  0  0
  6  8  4  0  0  0  0
  8  9  1  0  0  0  0
  8 10  4  0  0  0  0
 10 11  4  0  0  0  0
 11 12  4  0  0  0  0
 12 13  4  0  0  0  0
 13 14  4  0  0  0  0
 14 15  1  0  0  0  0
 14 16  4  0  0  0  0
  3 16  4  0  0  0  0
 10 16  4  0  0  0  0
 13 17  1  0  0  0  0
 12 18  1  0  0  0  0
 11 19  1  0  0  0  0
  2 20  1  0  0  0  0
 20 21  1  0  0  0  0
 21 22  1  0  0  0  0
 21 23  1  0  0  0  0
 21 24  1  0  0  0  0
 24 25  1  0  0  0  0
 24 26  1  0  0  0  0
 24 27  1  0  0  0  0
 27 28  1  0  0  0  0
 28 29  2  0  0  0  0
 29 30  1  0  0  0  0
 29 31  1  0  0  0  0
 31 32  1  0  0  0  0
 31 33  2  0  0  0  0
 33 34  1  0  0  0  0
 33 35  1  0  0  0  0
 35 36  1  0  0  0  0
 35 37  2  0  0  0  0
 28 37  1  0  0  0  0
 37 38  1  0  0  0  0
 27 39  1  0  0  0  0
 39 40  1  0  0  0  0
 39 41  1  0  0  0  0
 39 42  1  0  0  0  0
 20 42  1  0  0  0  0
 42 43  1  0  0  0  0
 42 44  1  0  0  0  0
M  END
> <Potency>
16.5026189867518

> <pIC50>
4.782447127226373

> <Outcome>
Inactive

> <is_active>
0

$$$$

  Mrv1921 08232120312D          

 44 47  0  0  0  0            999 V2000
    2.1434   -2.8875    0.0000 O   0  0  0  0  0  0  0  0  0  0  0  0
    1.4289   -2.4750    0.0000 C   0  0  0  0  0  0  0  0  0  0  0  0
    1.4289   -1.6500    0.0000 C   0  0  0  0  0  0  0  0  0  0  0  0
    0.7145   -1.2375    0.0000 C   0  0  0  0  0  0  0  0  0  0  0  0
    0.0000   -1.6500    0.0000 H   0  0  0  0  0  0  0  0  0  0  0  0
    0.7145   -0.4125    0.0000 C   0  0  0  0  0  0  0  0  0  0  0  0
    0.0000    0.0000    0.0000 O   0  0  0  0  0  0  0  0  0  0  0  0
    1.4289    0.0000    0.0000 N   0  0  0  0  0  0  0  0  0  0  0  0
    1.4289    0.8250    0.0000 H   0  0  0  0  0  0  0  0  0  0  0  0
    2.1434   -0.4125    0.0000 C   0  0  0  0  0  0  0  0  0  0  0  0
    2.8579    0.0000    0.0000 C   0  0  0  0  0  0  0  0  0  0  0  0
    3.5724   -0.4125    0.0000 C   0  0  0  0  0  0  0  0  0  0  0  0
    3.5724   -1.2375    0.0000 C   0  0  0  0  0  0  0  0  0  0  0  0
    2.8579   -1.6500    0.0000 C   0  0  0  0  0  0  0  0  0  0  0  0
    2.8579   -2.4750    0.0000 H   0  0  0  0  0  0  0  0  0  0  0  0
    2.1434   -1.2375    0.0000 C   0  0  0  0  0  0  0  0  0  0  0  0
    4.2868   -1.6500    0.0000 H   0  0  0  0  0  0  0  0  0  0  0  0
    4.2868   -0.0000    0.0000 H   0  0  0  0  0  0  0  0  0  0  0  0
    2.8579    0.8250    0.0000 H   0  0  0  0  0  0  0  0  0  0  0  0
    0.7145   -2.8875    0.0000 N   0  0  0  0  0  0  0  0  0  0  0  0
    0.7145   -3.7125    0.0000 C   0  0  0  0  0  0  0  0  0  0  0  0
    1.1678   -4.4018    0.0000 H   0  0  0  0  0  0  0  0  0  0  0  0
    1.5381   -3.7605    0.0000 H   0  0  0  0  0  0  0  0  0  0  0  0
    0.0000   -4.1250    0.0000 C   0  0  0  0  0  0  0  0  0  0  0  0
   -0.3703   -4.8622    0.0000 H   0  0  0  0  0  0  0  0  0  0  0  0
    0.3703   -4.8622    0.0000 H   0  0  0  0  0  0  0  0  0  0  0  0
   -0.7145   -3.7125    0.0000 N   0  0  0  0  0  0  0  0  0  0  0  0
   -1.4289   -4.1250    0.0000 C   0  0  0  0  0  0  0  0  0  0  0  0
   -1.4289   -4.9500    0.0000 C   0  0  0  0  0  0  0  0  0  0  0  0
   -0.7145   -5.3625    0.0000 H   0  0  0  0  0  0  0  0  0  0  0  0
   -2.1434   -5.3625    0.0000 C   0  0  0  0  0  0  0  0  0  0  0  0
   -2.1434   -6.1875    0.0000 H   0  0  0  0  0  0  0  0  0  0  0  0
   -2.8579   -4.9500    0.0000 C   0  0  0  0  0  0  0  0  0  0  0  0
   -3.5724   -5.3625    0.0000 H   0  0  0  0  0  0  0  0  0  0  0  0
   -2.8579   -4.1250    0.0000 C   0  0  0  0  0  0  0  0  0  0  0  0
   -3.5724   -3.7125    0.0000 H   0  0  0  0  0  0  0  0  0  0  0  0
   -2.1434   -3.7125    0.0000 C   0  0  0  0  0  0  0  0  0  0  0  0
   -2.1434   -2.8875    0.0000 F   0  0  0  0  0  0  0  0  0  0  0  0
   -0.7145   -2.8875    0.0000 C   0  0  0  0  0  0  0  0  0  0  0  0
   -1.1678   -2.1982    0.0000 H   0  0  0  0  0  0  0  0  0  0  0  0
   -1.5381   -2.8395    0.0000 H   0  0  0  0  0  0  0  0  0  0  0  0
    0.0000   -2.4750    0.0000 C   0  0  0  0  0  0  0  0  0  0  0  0
    0.7145   -2.0625    0.0000 H   0  0  0  0  0  0  0  0  0  0  0  0
    0.0000   -3.3000    0.0000 H   0  0  0  0  0  0  0  0  0  0  0  0
  1  2  2  0  0  0  0
  2  3  1  0  0  0  0
  3  4  4  0  0  0  0
  4  5  1  0  0  0  0
  4  6  4  0  0  0  0
  6  7  2  0  0  0  0
  6  8  4  0  0  0  0
  8  9  1  0  0  0  0
  8 10  4  0  0  0  0
 10 11  4  0  0  0  0
 11 12  4  0  0  0  0
 12 13  4  0  0  0  0
 13 14  4  0  0  0  0
 14 15  1  0  0  0  0
 14 16  4  0  0  0  0
  3 16  4  0  0  0  0
 10 16  4  0  0  0  0
 13 17  1  0  0  0  0
 12 18  1  0  0  0  0
 11 19  1  0  0  0  0
  2 20  1  0  0  0  0
 20 21  1  0  0  0  0
 21 22  1  0  0  0  0
 21 23  1  0  0  0  0
 21 24  1  0  0  0  0
 24 25  1  0  0  0  0
 24 26  1  0  0  0  0
 24 27  1  0  0  0  0
 27 28  1  0  0  0  0
 28 29  2  0  0  0  0
 29 30  1  0  0  0  0
 29 31  1  0  0  0  0
 31 32  1  0  0  0  0
 31 33  2  0  0  0  0
 33 34  1  0  0  0  0
 33 35  1  0  0  0  0
 35 36  1  0  0  0  0
 35 37  2  0  0  0  0
 28 37  1  0  0  0  0
 37 38  1  0  0  0  0
 27 39  1  0  0  0  0
 39 40  1  0  0  0  0
 39 41  1  0  0  0  0
 39 42  1  0  0  0  0
 20 42  1  0  0  0  0
 42 43  1  0  0  0  0
 42 44  1  0  0  0  0
M  END
> <Potency>
23.9995998649817

> <pIC50>
4.619795999033356

> <Outcome>
Inactive

> <is_active>
0

$$$$

  Mrv1921 08232120312D          

 34 35  0  0  0  0            999 V2000
   -0.7145   -3.7125    0.0000 C   0  0  0  0  0  0  0  0  0  0  0  0
   -0.7145   -2.8875    0.0000 C   0  0  0  0  0  0  0  0  0  0  0  0
   -1.4289   -2.4750    0.0000 C   0  0  0  0  0  0  0  0  0  0  0  0
   -2.1434   -2.8875    0.0000 H   0  0  0  0  0  0  0  0  0  0  0  0
   -1.4289   -1.6500    0.0000 C   0  0  0  0  0  0  0  0  0  0  0  0
   -2.1434   -1.2375    0.0000 H   0  0  0  0  0  0  0  0  0  0  0  0
   -0.7145   -1.2375    0.0000 N   0  0  0  0  0  0  0  0  0  0  0  0
    0.0000   -1.6500    0.0000 C   0  0  0  0  0  0  0  0  0  0  0  0
    0.7145   -1.2375    0.0000 H   0  0  0  0  0  0  0  0  0  0  0  0
    0.0000   -2.4750    0.0000 C   0  0  0  0  0  0  0  0  0  0  0  0
    0.7145   -2.8875    0.0000 N   0  0  0  0  0  0  0  0  0  0  0  0
    1.4289   -2.4750    0.0000 C   0  0  0  0  0  0  0  0  0  0  0  0
    1.4289   -1.6500    0.0000 O   0  0  0  0  0  0  0  0  0  0  0  0
    2.1434   -2.8875    0.0000 C   0  0  0  0  0  0  0  0  0  0  0  0
    2.8579   -2.4750    0.0000 C   0  0  0  0  0  0  0  0  0  0  0  0
    3.5724   -2.8875    0.0000 C   0  0  0  0  0  0  0  0  0  0  0  0
    4.2868   -2.4750    0.0000 C   0  0  0  0  0  0  0  0  0  0  0  0
    4.2868   -1.6500    0.0000 H   0  0  0  0  0  0  0  0  0  0  0  0
    5.0013   -2.8875    0.0000 C   0  0  0  0  0  0  0  0  0  0  0  0
    5.7158   -2.4750    0.0000 H   0  0  0  0  0  0  0  0  0  0  0  0
    5.0013   -3.7125    0.0000 C   0  0  0  0  0  0  0  0  0  0  0  0
    5.7158   -4.1250    0.0000 H   0  0  0  0  0  0  0  0  0  0  0  0
    4.2868   -4.1250    0.0000 C   0  0  0  0  0  0  0  0  0  0  0  0
    4.2868   -4.9500    0.0000 F   0  0  0  0  0  0  0  0  0  0  0  0
    3.5724   -3.7125    0.0000 C   0  0  0  0  0  0  0  0  0  0  0  0
    2.8579   -4.1250    0.0000 H   0  0  0  0  0  0  0  0  0  0  0  0
    3.2281   -1.7378    0.0000 H   0  0  0  0  0  0  0  0  0  0  0  0
    2.4876   -1.7378    0.0000 H   0  0  0  0  0  0  0  0  0  0  0  0
    1.7732   -3.6247    0.0000 H   0  0  0  0  0  0  0  0  0  0  0  0
    2.5137   -3.6247    0.0000 H   0  0  0  0  0  0  0  0  0  0  0  0
    0.7145   -3.7125    0.0000 H   0  0  0  0  0  0  0  0  0  0  0  0
   -1.5395   -3.7125    0.0000 H   0  0  0  0  0  0  0  0  0  0  0  0
   -0.7145   -4.5375    0.0000 H   0  0  0  0  0  0  0  0  0  0  0  0
    0.1105   -3.7125    0.0000 H   0  0  0  0  0  0  0  0  0  0  0  0
  1  2  1  0  0  0  0
  2  3  2  0  0  0  0
  3  4  1  0  0  0  0
  3  5  1  0  0  0  0
  5  6  1  0  0  0  0
  5  7  2  0  0  0  0
  7  8  1  0  0  0  0
  8  9  1  0  0  0  0
  8 10  2  0  0  0  0
  2 10  1  0  0  0  0
 10 11  1  0  0  0  0
 11 12  1  0  0  0  0
 12 13  2  0  0  0  0
 12 14  1  0  0  0  0
 14 15  1  0  0  0  0
 15 16  1  0  0  0  0
 16 17  2  0  0  0  0
 17 18  1  0  0  0  0
 17 19  1  0  0  0  0
 19 20  1  0  0  0  0
 19 21  2  0  0  0  0
 21 22  1  0  0  0  0
 21 23  1  0  0  0  0
 23 24  1  0  0  0  0
 23 25  2  0  0  0  0
 16 25  1  0  0  0  0
 25 26  1  0  0  0  0
 15 27  1  0  0  0  0
 15 28  1  0  0  0  0
 14 29  1  0  0  0  0
 14 30  1  0  0  0  0
 11 31  1  0  0  0  0
  1 32  1  0  0  0  0
  1 33  1  0  0  0  0
  1 34  1  0  0  0  0
M  END
> <Potency>
58.4540931399392

> <pIC50>
4.233185072768176

> <Outcome>
Inactive

> <is_active>
0

$$$$

  Mrv1921 08232120312D          

 38 40  0  0  0  0            999 V2000
   -0.8212    6.8277    0.0000 C   0  0  0  0  0  0  0  0  0  0  0  0
   -0.1067    7.2402    0.0000 C   0  0  0  0  0  0  0  0  0  0  0  0
   -0.1067    8.0652    0.0000 C   0  0  0  0  0  0  0  0  0  0  0  0
   -0.8212    8.4777    0.0000 H   0  0  0  0  0  0  0  0  0  0  0  0
    0.6078    8.4777    0.0000 C   0  0  0  0  0  0  0  0  0  0  0  0
    0.6078    9.3027    0.0000 H   0  0  0  0  0  0  0  0  0  0  0  0
    1.3222    8.0652    0.0000 N   0  0  0  0  0  0  0  0  0  0  0  0
    1.3222    7.2402    0.0000 C   0  0  0  0  0  0  0  0  0  0  0  0
    2.0367    6.8277    0.0000 H   0  0  0  0  0  0  0  0  0  0  0  0
    0.6078    6.8277    0.0000 C   0  0  0  0  0  0  0  0  0  0  0  0
    0.6078    6.0027    0.0000 N   0  0  0  0  0  0  0  0  0  0  0  0
    1.3222    5.5902    0.0000 C   0  0  0  0  0  0  0  0  0  0  0  0
    2.0367    6.0027    0.0000 O   0  0  0  0  0  0  0  0  0  0  0  0
    1.3222    4.7652    0.0000 C   0  0  0  0  0  0  0  0  0  0  0  0
    2.0367    4.3527    0.0000 C   0  0  0  0  0  0  0  0  0  0  0  0
    2.7512    4.7652    0.0000 C   0  0  0  0  0  0  0  0  0  0  0  0
    2.7512    5.5902    0.0000 H   0  0  0  0  0  0  0  0  0  0  0  0
    3.4656    4.3527    0.0000 C   0  0  0  0  0  0  0  0  0  0  0  0
    4.1801    4.7652    0.0000 H   0  0  0  0  0  0  0  0  0  0  0  0
    3.4656    3.5277    0.0000 C   0  0  0  0  0  0  0  0  0  0  0  0
    4.1801    3.1152    0.0000 H   0  0  0  0  0  0  0  0  0  0  0  0
    2.7512    3.1152    0.0000 C   0  0  0  0  0  0  0  0  0  0  0  0
    2.7512    2.2902    0.0000 C   0  0  0  0  0  0  0  0  0  0  0  0
    3.4186    1.8053    0.0000 C   0  0  0  0  0  0  0  0  0  0  0  0
    4.2032    2.0602    0.0000 H   0  0  0  0  0  0  0  0  0  0  0  0
    3.1637    1.0206    0.0000 N   0  0  0  0  0  0  0  0  0  0  0  0
    2.3387    1.0206    0.0000 N   0  0  0  0  0  0  0  0  0  0  0  0
    1.8538    0.3532    0.0000 H   0  0  0  0  0  0  0  0  0  0  0  0
    2.0837    1.8053    0.0000 C   0  0  0  0  0  0  0  0  0  0  0  0
    1.2991    2.0602    0.0000 H   0  0  0  0  0  0  0  0  0  0  0  0
    2.0367    3.5277    0.0000 C   0  0  0  0  0  0  0  0  0  0  0  0
    1.3222    3.1152    0.0000 H   0  0  0  0  0  0  0  0  0  0  0  0
    0.4986    4.7172    0.0000 H   0  0  0  0  0  0  0  0  0  0  0  0
    0.8689    4.0759    0.0000 H   0  0  0  0  0  0  0  0  0  0  0  0
   -0.1067    5.5902    0.0000 H   0  0  0  0  0  0  0  0  0  0  0  0
   -1.2337    7.5422    0.0000 H   0  0  0  0  0  0  0  0  0  0  0  0
   -1.5356    6.4152    0.0000 H   0  0  0  0  0  0  0  0  0  0  0  0
   -0.4087    6.1132    0.0000 H   0  0  0  0  0  0  0  0  0  0  0  0
  1  2  1  0  0  0  0
  2  3  2  0  0  0  0
  3  4  1  0  0  0  0
  3  5  1  0  0  0  0
  5  6  1  0  0  0  0
  5  7  2  0  0  0  0
  7  8  1  0  0  0  0
  8  9  1  0  0  0  0
  8 10  2  0  0  0  0
  2 10  1  0  0  0  0
 10 11  1  0  0  0  0
 11 12  1  0  0  0  0
 12 13  2  0  0  0  0
 12 14  1  0  0  0  0
 14 15  1  0  0  0  0
 15 16  2  0  0  0  0
 16 17  1  0  0  0  0
 16 18  1  0  0  0  0
 18 19  1  0  0  0  0
 18 20  2  0  0  0  0
 20 21  1  0  0  0  0
 20 22  1  0  0  0  0
 22 23  1  0  0  0  0
 23 24  1  0  0  0  0
 24 25  1  0  0  0  0
 24 26  2  0  0  0  0
 26 27  1  0  0  0  0
 27 28  1  0  0  0  0
 27 29  1  0  0  0  0
 23 29  2  0  0  0  0
 29 30  1  0  0  0  0
 22 31  2  0  0  0  0
 15 31  1  0  0  0  0
 31 32  1  0  0  0  0
 14 33  1  0  0  0  0
 14 34  1  0  0  0  0
 11 35  1  0  0  0  0
  1 36  1  0  0  0  0
  1 37  1  0  0  0  0
  1 38  1  0  0  0  0
M  END
> <Potency>
53.1652610098348

> <pIC50>
4.274372049653904

> <Outcome>
Inactive

> <is_active>
0

$$$$

  Mrv1921 08232120312D          

 34 36  0  0  0  0            999 V2000
   -2.1262    0.1913    0.0000 C   0  0  0  0  0  0  0  0  0  0  0  0
   -1.3057    0.2775    0.0000 C   0  0  0  0  0  0  0  0  0  0  0  0
   -0.8932    0.9920    0.0000 N   0  0  0  0  0  0  0  0  0  0  0  0
   -0.0862    0.8205    0.0000 N   0  0  0  0  0  0  0  0  0  0  0  0
    0.0000    0.0000    0.0000 C   0  0  0  0  0  0  0  0  0  0  0  0
    0.7145   -0.4125    0.0000 C   0  0  0  0  0  0  0  0  0  0  0  0
    1.4289    0.0000    0.0000 C   0  0  0  0  0  0  0  0  0  0  0  0
    1.7992    0.7372    0.0000 H   0  0  0  0  0  0  0  0  0  0  0  0
    1.0587    0.7372    0.0000 H   0  0  0  0  0  0  0  0  0  0  0  0
    2.1434   -0.4125    0.0000 C   0  0  0  0  0  0  0  0  0  0  0  0
    2.8579    0.0000    0.0000 C   0  0  0  0  0  0  0  0  0  0  0  0
    3.5724   -0.4125    0.0000 C   0  0  0  0  0  0  0  0  0  0  0  0
    3.5724   -1.2375    0.0000 C   0  0  0  0  0  0  0  0  0  0  0  0
    2.8579   -1.6500    0.0000 C   0  0  0  0  0  0  0  0  0  0  0  0
    2.8579   -2.4750    0.0000 H   0  0  0  0  0  0  0  0  0  0  0  0
    2.1434   -1.2375    0.0000 C   0  0  0  0  0  0  0  0  0  0  0  0
    1.4289   -1.6500    0.0000 C   0  0  0  0  0  0  0  0  0  0  0  0
    1.0587   -2.3872    0.0000 H   0  0  0  0  0  0  0  0  0  0  0  0
    1.7992   -2.3872    0.0000 H   0  0  0  0  0  0  0  0  0  0  0  0
    0.7145   -1.2375    0.0000 N   0  0  0  0  0  0  0  0  0  0  0  0
    0.0000   -1.6500    0.0000 C   0  0  0  0  0  0  0  0  0  0  0  0
   -0.7145   -1.2375    0.0000 O   0  0  0  0  0  0  0  0  0  0  0  0
    0.0000   -2.4750    0.0000 C   0  0  0  0  0  0  0  0  0  0  0  0
   -0.7145   -2.8875    0.0000 Cl  0  0  0  0  0  0  0  0  0  0  0  0
    0.4533   -3.1643    0.0000 H   0  0  0  0  0  0  0  0  0  0  0  0
    0.8236   -2.5230    0.0000 H   0  0  0  0  0  0  0  0  0  0  0  0
    4.2868   -1.6500    0.0000 H   0  0  0  0  0  0  0  0  0  0  0  0
    4.2868   -0.0000    0.0000 H   0  0  0  0  0  0  0  0  0  0  0  0
    2.8579    0.8250    0.0000 H   0  0  0  0  0  0  0  0  0  0  0  0
    0.0000   -0.8250    0.0000 H   0  0  0  0  0  0  0  0  0  0  0  0
   -0.7537   -0.3356    0.0000 O   0  0  0  0  0  0  0  0  0  0  0  0
   -2.2124    1.0118    0.0000 H   0  0  0  0  0  0  0  0  0  0  0  0
   -2.9467    0.1051    0.0000 H   0  0  0  0  0  0  0  0  0  0  0  0
   -2.0400   -0.6292    0.0000 H   0  0  0  0  0  0  0  0  0  0  0  0
  1  2  1  0  0  0  0
  2  3  2  0  0  0  0
  3  4  1  0  0  0  0
  4  5  2  0  0  0  0
  5  6  1  0  0  0  0
  6  7  1  0  0  0  0
  7  8  1  0  0  0  0
  7  9  1  0  0  0  0
  7 10  1  0  0  0  0
 10 11  2  0  0  0  0
 11 12  1  0  0  0  0
 12 13  2  0  0  0  0
 13 14  1  0  0  0  0
 14 15  1  0  0  0  0
 14 16  2  0  0  0  0
 10 16  1  0  0  0  0
 16 17  1  0  0  0  0
 17 18  1  0  0  0  0
 17 19  1  0  0  0  0
 17 20  1  0  0  0  0
  6 20  1  0  0  0  0
 20 21  1  0  0  0  0
 21 22  2  0  0  0  0
 21 23  1  0  0  0  0
 23 24  1  0  0  0  0
 23 25  1  0  0  0  0
 23 26  1  0  0  0  0
 13 27  1  0  0  0  0
 12 28  1  0  0  0  0
 11 29  1  0  0  0  0
  6 30  1  0  0  0  0
  5 31  1  0  0  0  0
  2 31  1  0  0  0  0
  1 32  1  0  0  0  0
  1 33  1  0  0  0  0
  1 34  1  0  0  0  0
M  END
> <Potency>
53.4912889111895

> <pIC50>
4.2717169373401065

> <Outcome>
Inactive

> <is_active>
0

$$$$

  Mrv1921 08232120312D          

 35 37  0  0  0  0            999 V2000
    2.7679   -2.3346    0.0000 C   0  0  0  0  0  0  0  0  0  0  0  0
    2.4324   -3.0882    0.0000 C   0  0  0  0  0  0  0  0  0  0  0  0
    2.9173   -3.7557    0.0000 C   0  0  0  0  0  0  0  0  0  0  0  0
    3.7378   -3.6695    0.0000 H   0  0  0  0  0  0  0  0  0  0  0  0
    2.5817   -4.5094    0.0000 C   0  0  0  0  0  0  0  0  0  0  0  0
    3.0667   -5.1768    0.0000 H   0  0  0  0  0  0  0  0  0  0  0  0
    1.7613   -4.5956    0.0000 N   0  0  0  0  0  0  0  0  0  0  0  0
    1.2763   -3.9282    0.0000 C   0  0  0  0  0  0  0  0  0  0  0  0
    0.4559   -4.0144    0.0000 H   0  0  0  0  0  0  0  0  0  0  0  0
    1.6119   -3.1745    0.0000 C   0  0  0  0  0  0  0  0  0  0  0  0
    1.1270   -2.5070    0.0000 N   0  0  0  0  0  0  0  0  0  0  0  0
    0.3020   -2.5070    0.0000 C   0  0  0  0  0  0  0  0  0  0  0  0
   -0.4395   -2.8687    0.0000 H   0  0  0  0  0  0  0  0  0  0  0  0
    0.1872   -3.3240    0.0000 H   0  0  0  0  0  0  0  0  0  0  0  0
    0.0470   -1.7224    0.0000 C   0  0  0  0  0  0  0  0  0  0  0  0
   -0.5261   -1.1290    0.0000 H   0  0  0  0  0  0  0  0  0  0  0  0
   -0.7654   -1.8657    0.0000 H   0  0  0  0  0  0  0  0  0  0  0  0
    0.7145   -1.2375    0.0000 C   0  0  0  0  0  0  0  0  0  0  0  0
    0.7145   -0.4125    0.0000 C   0  0  0  0  0  0  0  0  0  0  0  0
    0.0000    0.0000    0.0000 C   0  0  0  0  0  0  0  0  0  0  0  0
   -0.7145   -0.4125    0.0000 H   0  0  0  0  0  0  0  0  0  0  0  0
    0.0000    0.8250    0.0000 C   0  0  0  0  0  0  0  0  0  0  0  0
   -0.7145    1.2375    0.0000 H   0  0  0  0  0  0  0  0  0  0  0  0
    0.7145    1.2375    0.0000 C   0  0  0  0  0  0  0  0  0  0  0  0
    0.7145    2.0625    0.0000 H   0  0  0  0  0  0  0  0  0  0  0  0
    1.4289    0.8250    0.0000 C   0  0  0  0  0  0  0  0  0  0  0  0
    2.1434    1.2375    0.0000 Cl  0  0  0  0  0  0  0  0  0  0  0  0
    1.4289    0.0000    0.0000 C   0  0  0  0  0  0  0  0  0  0  0  0
    2.2539    0.0098    0.0000 H   0  0  0  0  0  0  0  0  0  0  0  0
    1.4496   -0.8630    0.0000 H   0  0  0  0  0  0  0  0  0  0  0  0
    1.3819   -1.7224    0.0000 C   0  0  0  0  0  0  0  0  0  0  0  0
    2.1665   -1.4675    0.0000 O   0  0  0  0  0  0  0  0  0  0  0  0
    3.5216   -2.6701    0.0000 H   0  0  0  0  0  0  0  0  0  0  0  0
    3.1035   -1.5809    0.0000 H   0  0  0  0  0  0  0  0  0  0  0  0
    2.0143   -1.9990    0.0000 H   0  0  0  0  0  0  0  0  0  0  0  0
  1  2  1  0  0  0  0
  2  3  2  0  0  0  0
  3  4  1  0  0  0  0
  3  5  1  0  0  0  0
  5  6  1  0  0  0  0
  5  7  2  0  0  0  0
  7  8  1  0  0  0  0
  8  9  1  0  0  0  0
  8 10  2  0  0  0  0
  2 10  1  0  0  0  0
 10 11  1  0  0  0  0
 11 12  1  0  0  0  0
 12 13  1  0  0  0  0
 12 14  1  0  0  0  0
 12 15  1  0  0  0  0
 15 16  1  0  0  0  0
 15 17  1  0  0  0  0
 15 18  1  0  0  0  0
 18 19  1  0  0  0  0
 19 20  2  0  0  0  0
 20 21  1  0  0  0  0
 20 22  1  0  0  0  0
 22 23  1  0  0  0  0
 22 24  2  0  0  0  0
 24 25  1  0  0  0  0
 24 26  1  0  0  0  0
 26 27  1  0  0  0  0
 26 28  2  0  0  0  0
 19 28  1  0  0  0  0
 28 29  1  0  0  0  0
 18 30  1  0  0  0  0
 18 31  1  0  0  0  0
 11 31  1  0  0  0  0
 31 32  2  0  0  0  0
  1 33  1  0  0  0  0
  1 34  1  0  0  0  0
  1 35  1  0  0  0  0
M  END
> <Potency>
44.721152845521

> <pIC50>
4.349487009504574

> <Outcome>
Inactive

> <is_active>
0

$$$$

  Mrv1921 08232120312D          

 35 36  0  0  0  0            999 V2000
    4.2868   -1.6500    0.0000 O   0  0  0  0  0  0  0  0  0  0  0  0
    3.5724   -1.2375    0.0000 C   0  0  0  0  0  0  0  0  0  0  0  0
    3.5724   -0.4125    0.0000 C   0  0  0  0  0  0  0  0  0  0  0  0
    4.2868    0.0000    0.0000 Cl  0  0  0  0  0  0  0  0  0  0  0  0
    3.1190    0.2768    0.0000 H   0  0  0  0  0  0  0  0  0  0  0  0
    2.7488   -0.3645    0.0000 H   0  0  0  0  0  0  0  0  0  0  0  0
    2.8579   -1.6500    0.0000 N   0  0  0  0  0  0  0  0  0  0  0  0
    2.8579   -2.4750    0.0000 C   0  0  0  0  0  0  0  0  0  0  0  0
    3.3112   -3.1643    0.0000 H   0  0  0  0  0  0  0  0  0  0  0  0
    3.6815   -2.5230    0.0000 H   0  0  0  0  0  0  0  0  0  0  0  0
    2.1434   -2.8875    0.0000 C   0  0  0  0  0  0  0  0  0  0  0  0
    1.7732   -3.6247    0.0000 H   0  0  0  0  0  0  0  0  0  0  0  0
    2.5137   -3.6247    0.0000 H   0  0  0  0  0  0  0  0  0  0  0  0
    1.4289   -2.4750    0.0000 N   0  0  0  0  0  0  0  0  0  0  0  0
    0.7145   -2.8875    0.0000 C   0  0  0  0  0  0  0  0  0  0  0  0
    0.0000   -2.4750    0.0000 C   0  0  0  0  0  0  0  0  0  0  0  0
   -0.7145   -2.8875    0.0000 C   0  0  0  0  0  0  0  0  0  0  0  0
   -0.7145   -3.7125    0.0000 H   0  0  0  0  0  0  0  0  0  0  0  0
   -1.4289   -2.4750    0.0000 C   0  0  0  0  0  0  0  0  0  0  0  0
   -2.1434   -2.8875    0.0000 O   0  0  0  0  0  0  0  0  0  0  0  0
   -2.8579   -2.4750    0.0000 H   0  0  0  0  0  0  0  0  0  0  0  0
   -1.4289   -1.6500    0.0000 C   0  0  0  0  0  0  0  0  0  0  0  0
   -2.1434   -1.2375    0.0000 H   0  0  0  0  0  0  0  0  0  0  0  0
   -0.7145   -1.2375    0.0000 C   0  0  0  0  0  0  0  0  0  0  0  0
   -0.7145   -0.4125    0.0000 Cl  0  0  0  0  0  0  0  0  0  0  0  0
    0.0000   -1.6500    0.0000 C   0  0  0  0  0  0  0  0  0  0  0  0
    0.7145   -1.2375    0.0000 H   0  0  0  0  0  0  0  0  0  0  0  0
    0.3442   -3.6247    0.0000 H   0  0  0  0  0  0  0  0  0  0  0  0
    1.0847   -3.6247    0.0000 H   0  0  0  0  0  0  0  0  0  0  0  0
    1.4289   -1.6500    0.0000 C   0  0  0  0  0  0  0  0  0  0  0  0
    1.4289   -0.8250    0.0000 H   0  0  0  0  0  0  0  0  0  0  0  0
    0.7145   -2.0625    0.0000 H   0  0  0  0  0  0  0  0  0  0  0  0
    2.1434   -1.2375    0.0000 C   0  0  0  0  0  0  0  0  0  0  0  0
    2.7754   -0.7072    0.0000 H   0  0  0  0  0  0  0  0  0  0  0  0
    2.2867   -0.4250    0.0000 H   0  0  0  0  0  0  0  0  0  0  0  0
  1  2  2  0  0  0  0
  2  3  1  0  0  0  0
  3  4  1  0  0  0  0
  3  5  1  0  0  0  0
  3  6  1  0  0  0  0
  2  7  1  0  0  0  0
  7  8  1  0  0  0  0
  8  9  1  0  0  0  0
  8 10  1  0  0  0  0
  8 11  1  0  0  0  0
 11 12  1  0  0  0  0
 11 13  1  0  0  0  0
 11 14  1  0  0  0  0
 14 15  1  0  0  0  0
 15 16  1  0  0  0  0
 16 17  2  0  0  0  0
 17 18  1  0  0  0  0
 17 19  1  0  0  0  0
 19 20  1  0  0  0  0
 20 21  1  0  0  0  0
 19 22  2  0  0  0  0
 22 23  1  0  0  0  0
 22 24  1  0  0  0  0
 24 25  1  0  0  0  0
 24 26  2  0  0  0  0
 16 26  1  0  0  0  0
 26 27  1  0  0  0  0
 15 28  1  0  0  0  0
 15 29  1  0  0  0  0
 14 30  1  0  0  0  0
 30 31  1  0  0  0  0
 30 32  1  0  0  0  0
 30 33  1  0  0  0  0
  7 33  1  0  0  0  0
 33 34  1  0  0  0  0
 33 35  1  0  0  0  0
M  END
> <Potency>
12.91844908314

> <pIC50>
4.888789622181815

> <Outcome>
Inactive

> <is_active>
0

$$$$

  Mrv1921 08232120312D          

 28 29  0  0  0  0            999 V2000
    4.2868   -1.6500    0.0000 O   0  0  0  0  0  0  0  0  0  0  0  0
    3.5724   -1.2375    0.0000 C   0  0  0  0  0  0  0  0  0  0  0  0
    2.8579   -1.6500    0.0000 C   0  0  0  0  0  0  0  0  0  0  0  0
    2.8579   -2.4750    0.0000 C   0  0  0  0  0  0  0  0  0  0  0  0
    3.5724   -2.8875    0.0000 C   0  0  0  0  0  0  0  0  0  0  0  0
    4.2868   -2.4750    0.0000 H   0  0  0  0  0  0  0  0  0  0  0  0
    3.5724   -3.7125    0.0000 C   0  0  0  0  0  0  0  0  0  0  0  0
    4.2868   -4.1250    0.0000 H   0  0  0  0  0  0  0  0  0  0  0  0
    2.8579   -4.1250    0.0000 C   0  0  0  0  0  0  0  0  0  0  0  0
    2.8579   -4.9500    0.0000 H   0  0  0  0  0  0  0  0  0  0  0  0
    2.1434   -3.7125    0.0000 C   0  0  0  0  0  0  0  0  0  0  0  0
    1.4289   -4.1250    0.0000 Cl  0  0  0  0  0  0  0  0  0  0  0  0
    2.1434   -2.8875    0.0000 C   0  0  0  0  0  0  0  0  0  0  0  0
    1.4289   -2.4750    0.0000 H   0  0  0  0  0  0  0  0  0  0  0  0
    2.4045   -0.9607    0.0000 H   0  0  0  0  0  0  0  0  0  0  0  0
    2.0343   -1.6020    0.0000 H   0  0  0  0  0  0  0  0  0  0  0  0
    3.5724   -0.4125    0.0000 N   0  0  0  0  0  0  0  0  0  0  0  0
    4.2868   -0.0000    0.0000 C   0  0  0  0  0  0  0  0  0  0  0  0
    4.2868    0.8250    0.0000 C   0  0  0  0  0  0  0  0  0  0  0  0
    3.5724    1.2375    0.0000 H   0  0  0  0  0  0  0  0  0  0  0  0
    5.0013    1.2375    0.0000 C   0  0  0  0  0  0  0  0  0  0  0  0
    5.0013    2.0625    0.0000 H   0  0  0  0  0  0  0  0  0  0  0  0
    5.7158    0.8250    0.0000 C   0  0  0  0  0  0  0  0  0  0  0  0
    6.4302    1.2375    0.0000 H   0  0  0  0  0  0  0  0  0  0  0  0
    5.7158   -0.0000    0.0000 N   0  0  0  0  0  0  0  0  0  0  0  0
    5.0013   -0.4125    0.0000 C   0  0  0  0  0  0  0  0  0  0  0  0
    5.0013   -1.2375    0.0000 H   0  0  0  0  0  0  0  0  0  0  0  0
    2.8579    0.0000    0.0000 H   0  0  0  0  0  0  0  0  0  0  0  0
  1  2  2  0  0  0  0
  2  3  1  0  0  0  0
  3  4  1  0  0  0  0
  4  5  2  0  0  0  0
  5  6  1  0  0  0  0
  5  7  1  0  0  0  0
  7  8  1  0  0  0  0
  7  9  2  0  0  0  0
  9 10  1  0  0  0  0
  9 11  1  0  0  0  0
 11 12  1  0  0  0  0
 11 13  2  0  0  0  0
  4 13  1  0  0  0  0
 13 14  1  0  0  0  0
  3 15  1  0  0  0  0
  3 16  1  0  0  0  0
  2 17  1  0  0  0  0
 17 18  1  0  0  0  0
 18 19  2  0  0  0  0
 19 20  1  0  0  0  0
 19 21  1  0  0  0  0
 21 22  1  0  0  0  0
 21 23  2  0  0  0  0
 23 24  1  0  0  0  0
 23 25  1  0  0  0  0
 25 26  2  0  0  0  0
 18 26  1  0  0  0  0
 26 27  1  0  0  0  0
 17 28  1  0  0  0  0
M  END
> <Potency>
53.717306778232

> <pIC50>
4.269885769656957

> <Outcome>
Inactive

> <is_active>
0

$$$$

  Mrv1921 08232120312D          

 44 45  0  0  0  0            999 V2000
   -1.4289   -4.1250    0.0000 C   0  0  0  0  0  0  0  0  0  0  0  0
   -0.7145   -3.7125    0.0000 C   0  0  0  0  0  0  0  0  0  0  0  0
    0.0000   -4.1250    0.0000 C   0  0  0  0  0  0  0  0  0  0  0  0
    0.7145   -3.7125    0.0000 C   0  0  0  0  0  0  0  0  0  0  0  0
    1.4289   -4.1250    0.0000 O   0  0  0  0  0  0  0  0  0  0  0  0
    2.1434   -3.7125    0.0000 C   0  0  0  0  0  0  0  0  0  0  0  0
    2.1434   -2.8875    0.0000 C   0  0  0  0  0  0  0  0  0  0  0  0
    1.4289   -2.4750    0.0000 H   0  0  0  0  0  0  0  0  0  0  0  0
    2.8579   -2.4750    0.0000 C   0  0  0  0  0  0  0  0  0  0  0  0
    2.8579   -1.6500    0.0000 H   0  0  0  0  0  0  0  0  0  0  0  0
    3.5724   -2.8875    0.0000 C   0  0  0  0  0  0  0  0  0  0  0  0
    4.2868   -2.4750    0.0000 Cl  0  0  0  0  0  0  0  0  0  0  0  0
    3.5724   -3.7125    0.0000 C   0  0  0  0  0  0  0  0  0  0  0  0
    4.2868   -4.1250    0.0000 H   0  0  0  0  0  0  0  0  0  0  0  0
    2.8579   -4.1250    0.0000 C   0  0  0  0  0  0  0  0  0  0  0  0
    2.8579   -4.9500    0.0000 C   0  0  0  0  0  0  0  0  0  0  0  0
    2.1434   -5.3625    0.0000 C   0  0  0  0  0  0  0  0  0  0  0  0
    1.4289   -4.9500    0.0000 O   0  0  0  0  0  0  0  0  0  0  0  0
    2.1434   -6.1875    0.0000 N   0  0  0  0  0  0  0  0  0  0  0  0
    2.8579   -6.6000    0.0000 C   0  0  0  0  0  0  0  0  0  0  0  0
    3.5724   -6.1875    0.0000 C   0  0  0  0  0  0  0  0  0  0  0  0
    4.1783   -5.6277    0.0000 H   0  0  0  0  0  0  0  0  0  0  0  0
    4.2868   -6.6000    0.0000 N   0  0  0  0  0  0  0  0  0  0  0  0
    4.2868   -7.4250    0.0000 C   0  0  0  0  0  0  0  0  0  0  0  0
    5.0013   -7.8375    0.0000 H   0  0  0  0  0  0  0  0  0  0  0  0
    3.5724   -7.8375    0.0000 C   0  0  0  0  0  0  0  0  0  0  0  0
    3.5724   -8.6625    0.0000 H   0  0  0  0  0  0  0  0  0  0  0  0
    2.8579   -7.4250    0.0000 C   0  0  0  0  0  0  0  0  0  0  0  0
    2.1434   -7.8375    0.0000 C   0  0  0  0  0  0  0  0  0  0  0  0
    1.7309   -7.1230    0.0000 H   0  0  0  0  0  0  0  0  0  0  0  0
    1.4289   -8.2500    0.0000 H   0  0  0  0  0  0  0  0  0  0  0  0
    2.5559   -8.5520    0.0000 H   0  0  0  0  0  0  0  0  0  0  0  0
    1.4289   -6.6000    0.0000 H   0  0  0  0  0  0  0  0  0  0  0  0
    3.3112   -5.6393    0.0000 H   0  0  0  0  0  0  0  0  0  0  0  0
    3.6815   -4.9980    0.0000 H   0  0  0  0  0  0  0  0  0  0  0  0
    1.0847   -2.9753    0.0000 H   0  0  0  0  0  0  0  0  0  0  0  0
    0.3442   -2.9753    0.0000 H   0  0  0  0  0  0  0  0  0  0  0  0
   -0.3703   -4.8622    0.0000 H   0  0  0  0  0  0  0  0  0  0  0  0
    0.3703   -4.8622    0.0000 H   0  0  0  0  0  0  0  0  0  0  0  0
   -0.3442   -2.9753    0.0000 H   0  0  0  0  0  0  0  0  0  0  0  0
   -1.0847   -2.9753    0.0000 H   0  0  0  0  0  0  0  0  0  0  0  0
   -1.8414   -3.4105    0.0000 H   0  0  0  0  0  0  0  0  0  0  0  0
   -2.1434   -4.5375    0.0000 H   0  0  0  0  0  0  0  0  0  0  0  0
   -1.0164   -4.8395    0.0000 H   0  0  0  0  0  0  0  0  0  0  0  0
  1  2  1  0  0  0  0
  2  3  1  0  0  0  0
  3  4  1  0  0  0  0
  4  5  1  0  0  0  0
  5  6  1  0  0  0  0
  6  7  2  0  0  0  0
  7  8  1  0  0  0  0
  7  9  1  0  0  0  0
  9 10  1  0  0  0  0
  9 11  2  0  0  0  0
 11 12  1  0  0  0  0
 11 13  1  0  0  0  0
 13 14  1  0  0  0  0
 13 15  2  0  0  0  0
  6 15  1  0  0  0  0
 15 16  1  0  0  0  0
 16 17  1  0  0  0  0
 17 18  2  0  0  0  0
 17 19  1  0  0  0  0
 19 20  1  0  0  0  0
 20 21  2  0  0  0  0
 21 22  1  0  0  0  0
 21 23  1  0  0  0  0
 23 24  2  0  0  0  0
 24 25  1  0  0  0  0
 24 26  1  0  0  0  0
 26 27  1  0  0  0  0
 26 28  2  0  0  0  0
 20 28  1  0  0  0  0
 28 29  1  0  0  0  0
 29 30  1  0  0  0  0
 29 31  1  0  0  0  0
 29 32  1  0  0  0  0
 19 33  1  0  0  0  0
 16 34  1  0  0  0  0
 16 35  1  0  0  0  0
  4 36  1  0  0  0  0
  4 37  1  0  0  0  0
  3 38  1  0  0  0  0
  3 39  1  0  0  0  0
  2 40  1  0  0  0  0
  2 41  1  0  0  0  0
  1 42  1  0  0  0  0
  1 43  1  0  0  0  0
  1 44  1  0  0  0  0
M  END
> <Potency>
24.7824039514023

> <pIC50>
4.6058565683315935

> <Outcome>
Inactive

> <is_active>
0

$$$$

  Mrv1921 08232120312D          

 43 45  0  0  0  0            999 V2000
   -0.7145   -2.8875    0.0000 C   0  0  0  0  0  0  0  0  0  0  0  0
   -0.7145   -2.0625    0.0000 C   0  0  0  0  0  0  0  0  0  0  0  0
   -1.4289   -1.6500    0.0000 C   0  0  0  0  0  0  0  0  0  0  0  0
   -2.1434   -2.0625    0.0000 H   0  0  0  0  0  0  0  0  0  0  0  0
   -1.4289   -0.8250    0.0000 C   0  0  0  0  0  0  0  0  0  0  0  0
   -2.1434   -0.4125    0.0000 H   0  0  0  0  0  0  0  0  0  0  0  0
   -0.7145   -0.4125    0.0000 N   0  0  0  0  0  0  0  0  0  0  0  0
    0.0000   -0.8250    0.0000 C   0  0  0  0  0  0  0  0  0  0  0  0
    0.7145   -0.4125    0.0000 H   0  0  0  0  0  0  0  0  0  0  0  0
    0.0000   -1.6500    0.0000 C   0  0  0  0  0  0  0  0  0  0  0  0
    0.7145   -2.0625    0.0000 N   0  0  0  0  0  0  0  0  0  0  0  0
    1.4289   -1.6500    0.0000 C   0  0  0  0  0  0  0  0  0  0  0  0
    1.4289   -0.8250    0.0000 O   0  0  0  0  0  0  0  0  0  0  0  0
    2.1434   -2.0625    0.0000 N   0  0  0  0  0  0  0  0  0  0  0  0
    2.8579   -1.6500    0.0000 C   0  0  0  0  0  0  0  0  0  0  0  0
    3.5724   -2.0625    0.0000 C   0  0  0  0  0  0  0  0  0  0  0  0
    4.2868   -1.6500    0.0000 C   0  0  0  0  0  0  0  0  0  0  0  0
    4.2868   -0.8250    0.0000 H   0  0  0  0  0  0  0  0  0  0  0  0
    5.0013   -2.0625    0.0000 C   0  0  0  0  0  0  0  0  0  0  0  0
    5.7158   -1.6500    0.0000 H   0  0  0  0  0  0  0  0  0  0  0  0
    5.0013   -2.8875    0.0000 C   0  0  0  0  0  0  0  0  0  0  0  0
    5.7158   -3.3000    0.0000 H   0  0  0  0  0  0  0  0  0  0  0  0
    4.2868   -3.3000    0.0000 C   0  0  0  0  0  0  0  0  0  0  0  0
    4.2868   -4.1250    0.0000 H   0  0  0  0  0  0  0  0  0  0  0  0
    3.5724   -2.8875    0.0000 C   0  0  0  0  0  0  0  0  0  0  0  0
    2.8579   -2.4750    0.0000 H   0  0  0  0  0  0  0  0  0  0  0  0
    3.2281   -0.9128    0.0000 H   0  0  0  0  0  0  0  0  0  0  0  0
    2.4876   -0.9128    0.0000 H   0  0  0  0  0  0  0  0  0  0  0  0
    2.1434   -2.8875    0.0000 C   0  0  0  0  0  0  0  0  0  0  0  0
    2.8579   -3.3000    0.0000 C   0  0  0  0  0  0  0  0  0  0  0  0
    3.5724   -3.7125    0.0000 H   0  0  0  0  0  0  0  0  0  0  0  0
    2.8579   -4.1250    0.0000 C   0  0  0  0  0  0  0  0  0  0  0  0
    3.2704   -4.8395    0.0000 H   0  0  0  0  0  0  0  0  0  0  0  0
    2.1434   -4.5375    0.0000 C   0  0  0  0  0  0  0  0  0  0  0  0
    2.1434   -5.3625    0.0000 H   0  0  0  0  0  0  0  0  0  0  0  0
    1.4289   -4.1250    0.0000 C   0  0  0  0  0  0  0  0  0  0  0  0
    0.7145   -4.5375    0.0000 Cl  0  0  0  0  0  0  0  0  0  0  0  0
    1.4289   -3.3000    0.0000 C   0  0  0  0  0  0  0  0  0  0  0  0
    1.4289   -2.4750    0.0000 H   0  0  0  0  0  0  0  0  0  0  0  0
    0.7145   -2.8875    0.0000 H   0  0  0  0  0  0  0  0  0  0  0  0
   -1.5395   -2.8875    0.0000 H   0  0  0  0  0  0  0  0  0  0  0  0
   -0.7145   -3.7125    0.0000 H   0  0  0  0  0  0  0  0  0  0  0  0
    0.1105   -2.8875    0.0000 H   0  0  0  0  0  0  0  0  0  0  0  0
  1  2  1  0  0  0  0
  2  3  2  0  0  0  0
  3  4  1  0  0  0  0
  3  5  1  0  0  0  0
  5  6  1  0  0  0  0
  5  7  2  0  0  0  0
  7  8  1  0  0  0  0
  8  9  1  0  0  0  0
  8 10  2  0  0  0  0
  2 10  1  0  0  0  0
 10 11  1  0  0  0  0
 11 12  1  0  0  0  0
 12 13  2  0  0  0  0
 12 14  1  0  0  0  0
 14 15  1  0  0  0  0
 15 16  1  0  0  0  0
 16 17  2  0  0  0  0
 17 18  1  0  0  0  0
 17 19  1  0  0  0  0
 19 20  1  0  0  0  0
 19 21  2  0  0  0  0
 21 22  1  0  0  0  0
 21 23  1  0  0  0  0
 23 24  1  0  0  0  0
 23 25  2  0  0  0  0
 16 25  1  0  0  0  0
 25 26  1  0  0  0  0
 15 27  1  0  0  0  0
 15 28  1  0  0  0  0
 14 29  1  0  0  0  0
 29 30  2  0  0  0  0
 30 31  1  0  0  0  0
 30 32  1  0  0  0  0
 32 33  1  0  0  0  0
 32 34  2  0  0  0  0
 34 35  1  0  0  0  0
 34 36  1  0  0  0  0
 36 37  1  0  0  0  0
 36 38  2  0  0  0  0
 29 38  1  0  0  0  0
 38 39  1  0  0  0  0
 11 40  1  0  0  0  0
  1 41  1  0  0  0  0
  1 42  1  0  0  0  0
  1 43  1  0  0  0  0
M  END
> <Potency>
22.9100709517503

> <pIC50>
4.639973565812526

> <Outcome>
Inactive

> <is_active>
0

$$$$

  Mrv1921 08232120312D          

 32 34  0  0  0  0            999 V2000
   -0.4752   -1.7084    0.0000 O   0  0  0  0  0  0  0  0  0  0  0  0
    0.0768   -2.3215    0.0000 C   0  0  0  0  0  0  0  0  0  0  0  0
    0.8838   -2.1500    0.0000 C   0  0  0  0  0  0  0  0  0  0  0  0
    1.1387   -1.3654    0.0000 N   0  0  0  0  0  0  0  0  0  0  0  0
    0.6538   -0.6979    0.0000 C   0  0  0  0  0  0  0  0  0  0  0  0
   -0.1712   -0.6979    0.0000 H   0  0  0  0  0  0  0  0  0  0  0  0
    1.1387   -0.0305    0.0000 N   0  0  0  0  0  0  0  0  0  0  0  0
    1.9233   -0.2854    0.0000 C   0  0  0  0  0  0  0  0  0  0  0  0
    2.6378    0.1271    0.0000 C   0  0  0  0  0  0  0  0  0  0  0  0
    3.3523   -0.2854    0.0000 C   0  0  0  0  0  0  0  0  0  0  0  0
    3.3523   -1.1104    0.0000 C   0  0  0  0  0  0  0  0  0  0  0  0
    2.6378   -1.5229    0.0000 C   0  0  0  0  0  0  0  0  0  0  0  0
    2.6378   -2.3479    0.0000 H   0  0  0  0  0  0  0  0  0  0  0  0
    1.9233   -1.1104    0.0000 C   0  0  0  0  0  0  0  0  0  0  0  0
    4.0668   -1.5229    0.0000 H   0  0  0  0  0  0  0  0  0  0  0  0
    4.0668    0.1271    0.0000 H   0  0  0  0  0  0  0  0  0  0  0  0
    2.6378    0.9521    0.0000 H   0  0  0  0  0  0  0  0  0  0  0  0
    1.1019   -2.9456    0.0000 H   0  0  0  0  0  0  0  0  0  0  0  0
    1.6523   -2.4501    0.0000 H   0  0  0  0  0  0  0  0  0  0  0  0
   -0.1781   -3.1062    0.0000 N   0  0  0  0  0  0  0  0  0  0  0  0
   -0.9851   -3.2777    0.0000 C   0  0  0  0  0  0  0  0  0  0  0  0
   -1.2400   -4.0623    0.0000 C   0  0  0  0  0  0  0  0  0  0  0  0
   -0.6880   -4.6754    0.0000 H   0  0  0  0  0  0  0  0  0  0  0  0
   -2.0470   -4.2338    0.0000 C   0  0  0  0  0  0  0  0  0  0  0  0
   -2.3020   -5.0184    0.0000 H   0  0  0  0  0  0  0  0  0  0  0  0
   -2.5990   -3.6207    0.0000 C   0  0  0  0  0  0  0  0  0  0  0  0
   -3.4060   -3.7923    0.0000 H   0  0  0  0  0  0  0  0  0  0  0  0
   -2.3441   -2.8361    0.0000 C   0  0  0  0  0  0  0  0  0  0  0  0
   -2.8961   -2.2230    0.0000 Cl  0  0  0  0  0  0  0  0  0  0  0  0
   -1.5371   -2.6646    0.0000 C   0  0  0  0  0  0  0  0  0  0  0  0
   -1.2822   -1.8800    0.0000 H   0  0  0  0  0  0  0  0  0  0  0  0
    0.3739   -3.7192    0.0000 H   0  0  0  0  0  0  0  0  0  0  0  0
  1  2  2  0  0  0  0
  2  3  1  0  0  0  0
  3  4  1  0  0  0  0
  4  5  1  0  0  0  0
  5  6  1  0  0  0  0
  5  7  2  0  0  0  0
  7  8  1  0  0  0  0
  8  9  2  0  0  0  0
  9 10  1  0  0  0  0
 10 11  2  0  0  0  0
 11 12  1  0  0  0  0
 12 13  1  0  0  0  0
 12 14  2  0  0  0  0
  4 14  1  0  0  0  0
  8 14  1  0  0  0  0
 11 15  1  0  0  0  0
 10 16  1  0  0  0  0
  9 17  1  0  0  0  0
  3 18  1  0  0  0  0
  3 19  1  0  0  0  0
  2 20  1  0  0  0  0
 20 21  1  0  0  0  0
 21 22  2  0  0  0  0
 22 23  1  0  0  0  0
 22 24  1  0  0  0  0
 24 25  1  0  0  0  0
 24 26  2  0  0  0  0
 26 27  1  0  0  0  0
 26 28  1  0  0  0  0
 28 29  1  0  0  0  0
 28 30  2  0  0  0  0
 21 30  1  0  0  0  0
 30 31  1  0  0  0  0
 20 32  1  0  0  0  0
M  END
> <Potency>
87.1939010151352

> <pIC50>
4.059513891765902

> <Outcome>
Inactive

> <is_active>
0

$$$$

  Mrv1921 08232120312D          

 31 32  0  0  0  0            999 V2000
    2.7512   -1.7116    0.0000 C   0  0  0  0  0  0  0  0  0  0  0  0
    2.7512   -2.5366    0.0000 C   0  0  0  0  0  0  0  0  0  0  0  0
    3.4186   -3.0215    0.0000 N   0  0  0  0  0  0  0  0  0  0  0  0
    3.1637   -3.8062    0.0000 N   0  0  0  0  0  0  0  0  0  0  0  0
    2.3387   -3.8062    0.0000 N   0  0  0  0  0  0  0  0  0  0  0  0
    1.8538   -4.4736    0.0000 N   0  0  0  0  0  0  0  0  0  0  0  0
    1.0333   -4.3874    0.0000 C   0  0  0  0  0  0  0  0  0  0  0  0
    0.6977   -3.6337    0.0000 O   0  0  0  0  0  0  0  0  0  0  0  0
    0.5484   -5.0548    0.0000 C   0  0  0  0  0  0  0  0  0  0  0  0
   -0.2721   -4.9686    0.0000 C   0  0  0  0  0  0  0  0  0  0  0  0
   -0.7571   -5.6360    0.0000 C   0  0  0  0  0  0  0  0  0  0  0  0
   -0.4215   -6.3897    0.0000 H   0  0  0  0  0  0  0  0  0  0  0  0
   -1.5775   -5.5498    0.0000 C   0  0  0  0  0  0  0  0  0  0  0  0
   -2.0625   -6.2172    0.0000 H   0  0  0  0  0  0  0  0  0  0  0  0
   -1.9131   -4.7961    0.0000 C   0  0  0  0  0  0  0  0  0  0  0  0
   -2.7336   -4.7098    0.0000 H   0  0  0  0  0  0  0  0  0  0  0  0
   -1.4282   -4.1286    0.0000 C   0  0  0  0  0  0  0  0  0  0  0  0
   -1.7637   -3.3750    0.0000 Cl  0  0  0  0  0  0  0  0  0  0  0  0
   -0.6077   -4.2149    0.0000 C   0  0  0  0  0  0  0  0  0  0  0  0
   -0.1228   -3.5474    0.0000 H   0  0  0  0  0  0  0  0  0  0  0  0
    0.5100   -5.8789    0.0000 H   0  0  0  0  0  0  0  0  0  0  0  0
    1.1865   -5.5777    0.0000 H   0  0  0  0  0  0  0  0  0  0  0  0
    2.1893   -5.2273    0.0000 H   0  0  0  0  0  0  0  0  0  0  0  0
    2.0837   -3.0215    0.0000 C   0  0  0  0  0  0  0  0  0  0  0  0
    1.2991   -2.7666    0.0000 C   0  0  0  0  0  0  0  0  0  0  0  0
    1.5541   -1.9820    0.0000 H   0  0  0  0  0  0  0  0  0  0  0  0
    0.5145   -2.5117    0.0000 H   0  0  0  0  0  0  0  0  0  0  0  0
    1.0442   -3.5512    0.0000 H   0  0  0  0  0  0  0  0  0  0  0  0
    3.5762   -1.7116    0.0000 H   0  0  0  0  0  0  0  0  0  0  0  0
    2.7512   -0.8866    0.0000 H   0  0  0  0  0  0  0  0  0  0  0  0
    1.9262   -1.7116    0.0000 H   0  0  0  0  0  0  0  0  0  0  0  0
  1  2  1  0  0  0  0
  2  3  1  0  0  0  0
  3  4  2  0  0  0  0
  4  5  1  0  0  0  0
  5  6  1  0  0  0  0
  6  7  1  0  0  0  0
  7  8  2  0  0  0  0
  7  9  1  0  0  0  0
  9 10  1  0  0  0  0
 10 11  2  0  0  0  0
 11 12  1  0  0  0  0
 11 13  1  0  0  0  0
 13 14  1  0  0  0  0
 13 15  2  0  0  0  0
 15 16  1  0  0  0  0
 15 17  1  0  0  0  0
 17 18  1  0  0  0  0
 17 19  2  0  0  0  0
 10 19  1  0  0  0  0
 19 20  1  0  0  0  0
  9 21  1  0  0  0  0
  9 22  1  0  0  0  0
  6 23  1  0  0  0  0
  5 24  1  0  0  0  0
  2 24  2  0  0  0  0
 24 25  1  0  0  0  0
 25 26  1  0  0  0  0
 25 27  1  0  0  0  0
 25 28  1  0  0  0  0
  1 29  1  0  0  0  0
  1 30  1  0  0  0  0
  1 31  1  0  0  0  0
M  END
> <Potency>
14.1625652028387

> <pIC50>
4.848858077681565

> <Outcome>
Inactive

> <is_active>
0

$$$$

  Mrv1921 08232120312D          

 24 25  0  0  0  0            999 V2000
   -2.7512   -1.7116    0.0000 O   0  0  0  0  0  0  0  0  0  0  0  0
   -2.0367   -1.2991    0.0000 C   0  0  0  0  0  0  0  0  0  0  0  0
   -2.0367   -0.4741    0.0000 C   0  0  0  0  0  0  0  0  0  0  0  0
   -2.7512   -0.0616    0.0000 C   0  0  0  0  0  0  0  0  0  0  0  0
   -3.4656   -0.4741    0.0000 C   0  0  0  0  0  0  0  0  0  0  0  0
   -3.4656   -1.2991    0.0000 H   0  0  0  0  0  0  0  0  0  0  0  0
   -4.1801   -0.0616    0.0000 C   0  0  0  0  0  0  0  0  0  0  0  0
   -4.8946   -0.4741    0.0000 H   0  0  0  0  0  0  0  0  0  0  0  0
   -4.1801    0.7634    0.0000 C   0  0  0  0  0  0  0  0  0  0  0  0
   -4.8946    1.1759    0.0000 H   0  0  0  0  0  0  0  0  0  0  0  0
   -3.4656    1.1759    0.0000 C   0  0  0  0  0  0  0  0  0  0  0  0
   -3.4656    2.0009    0.0000 Cl  0  0  0  0  0  0  0  0  0  0  0  0
   -2.7512    0.7634    0.0000 C   0  0  0  0  0  0  0  0  0  0  0  0
   -2.0367    1.1759    0.0000 H   0  0  0  0  0  0  0  0  0  0  0  0
   -1.2131   -0.4261    0.0000 H   0  0  0  0  0  0  0  0  0  0  0  0
   -1.5834    0.2152    0.0000 H   0  0  0  0  0  0  0  0  0  0  0  0
   -1.3222   -1.7116    0.0000 N   0  0  0  0  0  0  0  0  0  0  0  0
   -1.3222   -2.5366    0.0000 C   0  0  0  0  0  0  0  0  0  0  0  0
   -0.6548   -3.0215    0.0000 N   0  0  0  0  0  0  0  0  0  0  0  0
   -0.9097   -3.8062    0.0000 N   0  0  0  0  0  0  0  0  0  0  0  0
   -1.7347   -3.8062    0.0000 N   0  0  0  0  0  0  0  0  0  0  0  0
   -1.9897   -3.0215    0.0000 N   0  0  0  0  0  0  0  0  0  0  0  0
   -2.7743   -2.7666    0.0000 H   0  0  0  0  0  0  0  0  0  0  0  0
   -0.6078   -1.2991    0.0000 H   0  0  0  0  0  0  0  0  0  0  0  0
  1  2  2  0  0  0  0
  2  3  1  0  0  0  0
  3  4  1  0  0  0  0
  4  5  2  0  0  0  0
  5  6  1  0  0  0  0
  5  7  1  0  0  0  0
  7  8  1  0  0  0  0
  7  9  2  0  0  0  0
  9 10  1  0  0  0  0
  9 11  1  0  0  0  0
 11 12  1  0  0  0  0
 11 13  2  0  0  0  0
  4 13  1  0  0  0  0
 13 14  1  0  0  0  0
  3 15  1  0  0  0  0
  3 16  1  0  0  0  0
  2 17  1  0  0  0  0
 17 18  1  0  0  0  0
 18 19  2  0  0  0  0
 19 20  1  0  0  0  0
 20 21  2  0  0  0  0
 21 22  1  0  0  0  0
 18 22  1  0  0  0  0
 22 23  1  0  0  0  0
 17 24  1  0  0  0  0
M  END
> <Potency>
45.2867094312226

> <pIC50>
4.344029234357449

> <Outcome>
Inactive

> <is_active>
0

$$$$

  Mrv1921 08232120312D          

 30 31  0  0  0  0            999 V2000
    2.8579   -1.6500    0.0000 C   0  0  0  0  0  0  0  0  0  0  0  0
    2.8579   -2.4750    0.0000 C   0  0  0  0  0  0  0  0  0  0  0  0
    3.5724   -2.8875    0.0000 C   0  0  0  0  0  0  0  0  0  0  0  0
    4.3974   -2.8875    0.0000 H   0  0  0  0  0  0  0  0  0  0  0  0
    3.5724   -3.7125    0.0000 C   0  0  0  0  0  0  0  0  0  0  0  0
    4.2868   -4.1250    0.0000 H   0  0  0  0  0  0  0  0  0  0  0  0
    2.8579   -4.1250    0.0000 N   0  0  0  0  0  0  0  0  0  0  0  0
    2.1434   -3.7125    0.0000 C   0  0  0  0  0  0  0  0  0  0  0  0
    1.4289   -4.1250    0.0000 H   0  0  0  0  0  0  0  0  0  0  0  0
    2.1434   -2.8875    0.0000 C   0  0  0  0  0  0  0  0  0  0  0  0
    1.4289   -2.4750    0.0000 N   0  0  0  0  0  0  0  0  0  0  0  0
    1.4289   -1.6500    0.0000 C   0  0  0  0  0  0  0  0  0  0  0  0
    2.1434   -1.2375    0.0000 O   0  0  0  0  0  0  0  0  0  0  0  0
    0.7145   -1.2375    0.0000 C   0  0  0  0  0  0  0  0  0  0  0  0
    0.7145   -0.4125    0.0000 C   0  0  0  0  0  0  0  0  0  0  0  0
    0.0000    0.0000    0.0000 C   0  0  0  0  0  0  0  0  0  0  0  0
   -0.7145   -0.4125    0.0000 H   0  0  0  0  0  0  0  0  0  0  0  0
    0.0000    0.8250    0.0000 N   0  0  0  0  0  0  0  0  0  0  0  0
    0.7145    1.2375    0.0000 C   0  0  0  0  0  0  0  0  0  0  0  0
    0.7145    2.0625    0.0000 H   0  0  0  0  0  0  0  0  0  0  0  0
    1.4289    0.8250    0.0000 C   0  0  0  0  0  0  0  0  0  0  0  0
    2.1434    1.2375    0.0000 Cl  0  0  0  0  0  0  0  0  0  0  0  0
    1.4289    0.0000    0.0000 C   0  0  0  0  0  0  0  0  0  0  0  0
    2.1434   -0.4125    0.0000 H   0  0  0  0  0  0  0  0  0  0  0  0
   -0.1091   -1.2855    0.0000 H   0  0  0  0  0  0  0  0  0  0  0  0
    0.2611   -1.9268    0.0000 H   0  0  0  0  0  0  0  0  0  0  0  0
    0.7145   -2.8875    0.0000 H   0  0  0  0  0  0  0  0  0  0  0  0
    3.5724   -2.0625    0.0000 H   0  0  0  0  0  0  0  0  0  0  0  0
    3.5724   -1.2375    0.0000 H   0  0  0  0  0  0  0  0  0  0  0  0
    2.8579   -0.8250    0.0000 H   0  0  0  0  0  0  0  0  0  0  0  0
  1  2  1  0  0  0  0
  2  3  2  0  0  0  0
  3  4  1  0  0  0  0
  3  5  1  0  0  0  0
  5  6  1  0  0  0  0
  5  7  2  0  0  0  0
  7  8  1  0  0  0  0
  8  9  1  0  0  0  0
  8 10  2  0  0  0  0
  2 10  1  0  0  0  0
 10 11  1  0  0  0  0
 11 12  1  0  0  0  0
 12 13  2  0  0  0  0
 12 14  1  0  0  0  0
 14 15  1  0  0  0  0
 15 16  2  0  0  0  0
 16 17  1  0  0  0  0
 16 18  1  0  0  0  0
 18 19  2  0  0  0  0
 19 20  1  0  0  0  0
 19 21  1  0  0  0  0
 21 22  1  0  0  0  0
 21 23  2  0  0  0  0
 15 23  1  0  0  0  0
 23 24  1  0  0  0  0
 14 25  1  0  0  0  0
 14 26  1  0  0  0  0
 11 27  1  0  0  0  0
  1 28  1  0  0  0  0
  1 29  1  0  0  0  0
  1 30  1  0  0  0  0
M  END
> <Potency>
46.4360480992792

> <pIC50>
4.333144747626522

> <Outcome>
Inactive

> <is_active>
0

$$$$

  Mrv1921 08232120312D          

 41 43  0  0  0  0            999 V2000
   -2.3527    1.1167    0.0000 C   0  0  0  0  0  0  0  0  0  0  0  0
   -2.3527    1.9417    0.0000 C   0  0  0  0  0  0  0  0  0  0  0  0
   -3.0671    2.3542    0.0000 C   0  0  0  0  0  0  0  0  0  0  0  0
   -3.7816    1.9417    0.0000 H   0  0  0  0  0  0  0  0  0  0  0  0
   -3.0671    3.1792    0.0000 C   0  0  0  0  0  0  0  0  0  0  0  0
   -3.7816    3.5917    0.0000 H   0  0  0  0  0  0  0  0  0  0  0  0
   -2.3527    3.5917    0.0000 N   0  0  0  0  0  0  0  0  0  0  0  0
   -1.6382    3.1792    0.0000 C   0  0  0  0  0  0  0  0  0  0  0  0
   -0.9237    3.5917    0.0000 H   0  0  0  0  0  0  0  0  0  0  0  0
   -1.6382    2.3542    0.0000 C   0  0  0  0  0  0  0  0  0  0  0  0
   -0.9237    1.9417    0.0000 N   0  0  0  0  0  0  0  0  0  0  0  0
   -0.2093    2.3542    0.0000 C   0  0  0  0  0  0  0  0  0  0  0  0
   -0.2093    3.1792    0.0000 O   0  0  0  0  0  0  0  0  0  0  0  0
    0.5052    1.9417    0.0000 C   0  0  0  0  0  0  0  0  0  0  0  0
    1.2197    2.3542    0.0000 C   0  0  0  0  0  0  0  0  0  0  0  0
    1.2197    3.1792    0.0000 C   0  0  0  0  0  0  0  0  0  0  0  0
    0.5052    3.5917    0.0000 H   0  0  0  0  0  0  0  0  0  0  0  0
    1.9341    3.5917    0.0000 C   0  0  0  0  0  0  0  0  0  0  0  0
    1.9341    4.4167    0.0000 C   0  0  0  0  0  0  0  0  0  0  0  0
    1.9341    5.2417    0.0000 N   0  0  0  0  0  0  0  0  0  0  0  0
    2.6486    3.1792    0.0000 C   0  0  0  0  0  0  0  0  0  0  0  0
    3.3631    3.5917    0.0000 H   0  0  0  0  0  0  0  0  0  0  0  0
    2.6486    2.3542    0.0000 C   0  0  0  0  0  0  0  0  0  0  0  0
    3.3631    1.9417    0.0000 O   0  0  0  0  0  0  0  0  0  0  0  0
    3.3631    1.1167    0.0000 C   0  0  0  0  0  0  0  0  0  0  0  0
    3.9465    0.5333    0.0000 C   0  0  0  0  0  0  0  0  0  0  0  0
    4.6609    0.1208    0.0000 H   0  0  0  0  0  0  0  0  0  0  0  0
    4.6609    0.9458    0.0000 H   0  0  0  0  0  0  0  0  0  0  0  0
    3.3631   -0.0500    0.0000 C   0  0  0  0  0  0  0  0  0  0  0  0
    3.3631   -0.8750    0.0000 O   0  0  0  0  0  0  0  0  0  0  0  0
    2.7797    0.5333    0.0000 N   0  0  0  0  0  0  0  0  0  0  0  0
    2.0521    0.1444    0.0000 H   0  0  0  0  0  0  0  0  0  0  0  0
    2.6009    1.4324    0.0000 H   0  0  0  0  0  0  0  0  0  0  0  0
    1.9341    1.9417    0.0000 C   0  0  0  0  0  0  0  0  0  0  0  0
    1.4766    1.2552    0.0000 H   0  0  0  0  0  0  0  0  0  0  0  0
    0.1349    1.2044    0.0000 H   0  0  0  0  0  0  0  0  0  0  0  0
    0.8755    1.2044    0.0000 H   0  0  0  0  0  0  0  0  0  0  0  0
   -0.9237    1.1167    0.0000 H   0  0  0  0  0  0  0  0  0  0  0  0
   -3.1777    1.1167    0.0000 H   0  0  0  0  0  0  0  0  0  0  0  0
   -2.3527    0.2917    0.0000 H   0  0  0  0  0  0  0  0  0  0  0  0
   -1.5277    1.1167    0.0000 H   0  0  0  0  0  0  0  0  0  0  0  0
  1  2  1  0  0  0  0
  2  3  2  0  0  0  0
  3  4  1  0  0  0  0
  3  5  1  0  0  0  0
  5  6  1  0  0  0  0
  5  7  2  0  0  0  0
  7  8  1  0  0  0  0
  8  9  1  0  0  0  0
  8 10  2  0  0  0  0
  2 10  1  0  0  0  0
 10 11  1  0  0  0  0
 11 12  1  0  0  0  0
 12 13  2  0  0  0  0
 12 14  1  0  0  0  0
 14 15  1  0  0  0  0
 15 16  2  0  0  0  0
 16 17  1  0  0  0  0
 16 18  1  0  0  0  0
 18 19  1  0  0  0  0
 19 20  3  0  0  0  0
 18 21  2  0  0  0  0
 21 22  1  0  0  0  0
 21 23  1  0  0  0  0
 23 24  1  0  0  0  0
 24 25  1  0  0  0  0
 25 26  1  0  0  0  0
 26 27  1  0  0  0  0
 26 28  1  0  0  0  0
 26 29  1  0  0  0  0
 29 30  2  0  0  0  0
 29 31  1  0  0  0  0
 25 31  1  0  0  0  0
 31 32  1  0  0  0  0
 25 33  1  0  0  0  0
 23 34  2  0  0  0  0
 15 34  1  0  0  0  0
 34 35  1  0  0  0  0
 14 36  1  0  0  0  0
 14 37  1  0  0  0  0
 11 38  1  0  0  0  0
  1 39  1  0  0  0  0
  1 40  1  0  0  0  0
  1 41  1  0  0  0  0
M  END
> <Potency>
11.5701415774751

> <pIC50>
4.936661326792414

> <Outcome>
Inactive

> <is_active>
0

$$$$

  Mrv1921 08232120312D          

 43 45  0  0  0  0            999 V2000
   -2.3527    1.1167    0.0000 C   0  0  0  0  0  0  0  0  0  0  0  0
   -2.3527    1.9417    0.0000 C   0  0  0  0  0  0  0  0  0  0  0  0
   -3.0671    2.3542    0.0000 C   0  0  0  0  0  0  0  0  0  0  0  0
   -3.7816    1.9417    0.0000 H   0  0  0  0  0  0  0  0  0  0  0  0
   -3.0671    3.1792    0.0000 C   0  0  0  0  0  0  0  0  0  0  0  0
   -3.7816    3.5917    0.0000 H   0  0  0  0  0  0  0  0  0  0  0  0
   -2.3527    3.5917    0.0000 N   0  0  0  0  0  0  0  0  0  0  0  0
   -1.6382    3.1792    0.0000 C   0  0  0  0  0  0  0  0  0  0  0  0
   -0.9237    3.5917    0.0000 H   0  0  0  0  0  0  0  0  0  0  0  0
   -1.6382    2.3542    0.0000 C   0  0  0  0  0  0  0  0  0  0  0  0
   -0.9237    1.9417    0.0000 N   0  0  0  0  0  0  0  0  0  0  0  0
   -0.2093    2.3542    0.0000 C   0  0  0  0  0  0  0  0  0  0  0  0
   -0.2093    3.1792    0.0000 O   0  0  0  0  0  0  0  0  0  0  0  0
    0.5052    1.9417    0.0000 C   0  0  0  0  0  0  0  0  0  0  0  0
    0.5052    1.1167    0.0000 C   0  0  0  0  0  0  0  0  0  0  0  0
   -0.0782    0.5333    0.0000 H   0  0  0  0  0  0  0  0  0  0  0  0
    0.9177    0.4022    0.0000 H   0  0  0  0  0  0  0  0  0  0  0  0
    1.3021    1.3302    0.0000 H   0  0  0  0  0  0  0  0  0  0  0  0
    1.2197    2.3542    0.0000 C   0  0  0  0  0  0  0  0  0  0  0  0
    1.2197    3.1792    0.0000 C   0  0  0  0  0  0  0  0  0  0  0  0
    0.5052    3.5917    0.0000 H   0  0  0  0  0  0  0  0  0  0  0  0
    1.9341    3.5917    0.0000 C   0  0  0  0  0  0  0  0  0  0  0  0
    1.9341    4.4167    0.0000 Cl  0  0  0  0  0  0  0  0  0  0  0  0
    2.6486    3.1792    0.0000 C   0  0  0  0  0  0  0  0  0  0  0  0
    3.3631    3.5917    0.0000 H   0  0  0  0  0  0  0  0  0  0  0  0
    2.6486    2.3542    0.0000 C   0  0  0  0  0  0  0  0  0  0  0  0
    3.3631    1.9417    0.0000 O   0  0  0  0  0  0  0  0  0  0  0  0
    3.3631    1.1167    0.0000 C   0  0  0  0  0  0  0  0  0  0  0  0
    3.9465    0.5333    0.0000 C   0  0  0  0  0  0  0  0  0  0  0  0
    4.6609    0.1208    0.0000 H   0  0  0  0  0  0  0  0  0  0  0  0
    4.6609    0.9458    0.0000 H   0  0  0  0  0  0  0  0  0  0  0  0
    3.3631   -0.0500    0.0000 C   0  0  0  0  0  0  0  0  0  0  0  0
    3.3631   -0.8750    0.0000 O   0  0  0  0  0  0  0  0  0  0  0  0
    2.7797    0.5333    0.0000 N   0  0  0  0  0  0  0  0  0  0  0  0
    2.0521    0.1444    0.0000 H   0  0  0  0  0  0  0  0  0  0  0  0
    2.6009    1.4324    0.0000 H   0  0  0  0  0  0  0  0  0  0  0  0
    1.9341    1.9417    0.0000 C   0  0  0  0  0  0  0  0  0  0  0  0
    1.9341    2.7667    0.0000 H   0  0  0  0  0  0  0  0  0  0  0  0
   -0.2093    1.5292    0.0000 H   0  0  0  0  0  0  0  0  0  0  0  0
   -0.9237    1.1167    0.0000 H   0  0  0  0  0  0  0  0  0  0  0  0
   -3.1777    1.1167    0.0000 H   0  0  0  0  0  0  0  0  0  0  0  0
   -2.3527    0.2917    0.0000 H   0  0  0  0  0  0  0  0  0  0  0  0
   -1.5277    1.1167    0.0000 H   0  0  0  0  0  0  0  0  0  0  0  0
  1  2  1  0  0  0  0
  2  3  2  0  0  0  0
  3  4  1  0  0  0  0
  3  5  1  0  0  0  0
  5  6  1  0  0  0  0
  5  7  2  0  0  0  0
  7  8  1  0  0  0  0
  8  9  1  0  0  0  0
  8 10  2  0  0  0  0
  2 10  1  0  0  0  0
 10 11  1  0  0  0  0
 11 12  1  0  0  0  0
 12 13  2  0  0  0  0
 12 14  1  0  0  0  0
 14 15  1  0  0  0  0
 15 16  1  0  0  0  0
 15 17  1  0  0  0  0
 15 18  1  0  0  0  0
 14 19  1  0  0  0  0
 19 20  2  0  0  0  0
 20 21  1  0  0  0  0
 20 22  1  0  0  0  0
 22 23  1  0  0  0  0
 22 24  2  0  0  0  0
 24 25  1  0  0  0  0
 24 26  1  0  0  0  0
 26 27  1  0  0  0  0
 27 28  1  0  0  0  0
 28 29  1  0  0  0  0
 29 30  1  0  0  0  0
 29 31  1  0  0  0  0
 29 32  1  0  0  0  0
 32 33  2  0  0  0  0
 32 34  1  0  0  0  0
 28 34  1  0  0  0  0
 34 35  1  0  0  0  0
 28 36  1  0  0  0  0
 26 37  2  0  0  0  0
 19 37  1  0  0  0  0
 37 38  1  0  0  0  0
 14 39  1  0  0  0  0
 11 40  1  0  0  0  0
  1 41  1  0  0  0  0
  1 42  1  0  0  0  0
  1 43  1  0  0  0  0
M  END
> <Potency>
77.1348411851102

> <pIC50>
4.112749410320367

> <Outcome>
Inactive

> <is_active>
0

$$$$

  Mrv1921 08232120312D          

 31 32  0  0  0  0            999 V2000
    2.8579   -1.6500    0.0000 C   0  0  0  0  0  0  0  0  0  0  0  0
    2.8579   -2.4750    0.0000 C   0  0  0  0  0  0  0  0  0  0  0  0
    3.5724   -2.8875    0.0000 C   0  0  0  0  0  0  0  0  0  0  0  0
    4.3974   -2.8875    0.0000 H   0  0  0  0  0  0  0  0  0  0  0  0
    3.5724   -3.7125    0.0000 C   0  0  0  0  0  0  0  0  0  0  0  0
    4.2868   -4.1250    0.0000 H   0  0  0  0  0  0  0  0  0  0  0  0
    2.8579   -4.1250    0.0000 N   0  0  0  0  0  0  0  0  0  0  0  0
    2.1434   -3.7125    0.0000 C   0  0  0  0  0  0  0  0  0  0  0  0
    1.4289   -4.1250    0.0000 H   0  0  0  0  0  0  0  0  0  0  0  0
    2.1434   -2.8875    0.0000 C   0  0  0  0  0  0  0  0  0  0  0  0
    1.4289   -2.4750    0.0000 N   0  0  0  0  0  0  0  0  0  0  0  0
    1.4289   -1.6500    0.0000 C   0  0  0  0  0  0  0  0  0  0  0  0
    2.1434   -1.2375    0.0000 O   0  0  0  0  0  0  0  0  0  0  0  0
    0.7145   -1.2375    0.0000 C   0  0  0  0  0  0  0  0  0  0  0  0
    0.7145   -0.4125    0.0000 C   0  0  0  0  0  0  0  0  0  0  0  0
    0.0000    0.0000    0.0000 C   0  0  0  0  0  0  0  0  0  0  0  0
   -0.7145   -0.4125    0.0000 H   0  0  0  0  0  0  0  0  0  0  0  0
    0.0000    0.8250    0.0000 C   0  0  0  0  0  0  0  0  0  0  0  0
   -0.7145    1.2375    0.0000 H   0  0  0  0  0  0  0  0  0  0  0  0
    0.7145    1.2375    0.0000 C   0  0  0  0  0  0  0  0  0  0  0  0
    0.7145    2.0625    0.0000 H   0  0  0  0  0  0  0  0  0  0  0  0
    1.4289    0.8250    0.0000 C   0  0  0  0  0  0  0  0  0  0  0  0
    2.1434    1.2375    0.0000 F   0  0  0  0  0  0  0  0  0  0  0  0
    1.4289    0.0000    0.0000 C   0  0  0  0  0  0  0  0  0  0  0  0
    2.1434   -0.4125    0.0000 H   0  0  0  0  0  0  0  0  0  0  0  0
   -0.1091   -1.2855    0.0000 H   0  0  0  0  0  0  0  0  0  0  0  0
    0.2611   -1.9268    0.0000 H   0  0  0  0  0  0  0  0  0  0  0  0
    0.7145   -2.8875    0.0000 H   0  0  0  0  0  0  0  0  0  0  0  0
    3.5724   -2.0625    0.0000 H   0  0  0  0  0  0  0  0  0  0  0  0
    3.5724   -1.2375    0.0000 H   0  0  0  0  0  0  0  0  0  0  0  0
    2.8579   -0.8250    0.0000 H   0  0  0  0  0  0  0  0  0  0  0  0
  1  2  1  0  0  0  0
  2  3  2  0  0  0  0
  3  4  1  0  0  0  0
  3  5  1  0  0  0  0
  5  6  1  0  0  0  0
  5  7  2  0  0  0  0
  7  8  1  0  0  0  0
  8  9  1  0  0  0  0
  8 10  2  0  0  0  0
  2 10  1  0  0  0  0
 10 11  1  0  0  0  0
 11 12  1  0  0  0  0
 12 13  2  0  0  0  0
 12 14  1  0  0  0  0
 14 15  1  0  0  0  0
 15 16  2  0  0  0  0
 16 17  1  0  0  0  0
 16 18  1  0  0  0  0
 18 19  1  0  0  0  0
 18 20  2  0  0  0  0
 20 21  1  0  0  0  0
 20 22  1  0  0  0  0
 22 23  1  0  0  0  0
 22 24  2  0  0  0  0
 15 24  1  0  0  0  0
 24 25  1  0  0  0  0
 14 26  1  0  0  0  0
 14 27  1  0  0  0  0
 11 28  1  0  0  0  0
  1 29  1  0  0  0  0
  1 30  1  0  0  0  0
  1 31  1  0  0  0  0
M  END
> <Potency>
95.8330784284157

> <pIC50>
4.018484560865627

> <Outcome>
Inactive

> <is_active>
0

$$$$

  Mrv1921 08232120312D          

 40 41  0  0  0  0            999 V2000
   -0.7145   -2.8875    0.0000 C   0  0  0  0  0  0  0  0  0  0  0  0
    0.0000   -2.4750    0.0000 C   0  0  0  0  0  0  0  0  0  0  0  0
    0.0000   -1.6500    0.0000 C   0  0  0  0  0  0  0  0  0  0  0  0
    0.7145   -1.2375    0.0000 C   0  0  0  0  0  0  0  0  0  0  0  0
    1.4289   -1.6500    0.0000 C   0  0  0  0  0  0  0  0  0  0  0  0
    2.1434   -1.2375    0.0000 O   0  0  0  0  0  0  0  0  0  0  0  0
    1.4289   -2.4750    0.0000 N   0  0  0  0  0  0  0  0  0  0  0  0
    2.1434   -2.8875    0.0000 C   0  0  0  0  0  0  0  0  0  0  0  0
    2.8579   -2.4750    0.0000 C   0  0  0  0  0  0  0  0  0  0  0  0
    2.8579   -1.6500    0.0000 H   0  0  0  0  0  0  0  0  0  0  0  0
    3.5724   -2.8875    0.0000 N   0  0  0  0  0  0  0  0  0  0  0  0
    3.5724   -3.7125    0.0000 C   0  0  0  0  0  0  0  0  0  0  0  0
    4.2868   -4.1250    0.0000 H   0  0  0  0  0  0  0  0  0  0  0  0
    2.8579   -4.1250    0.0000 C   0  0  0  0  0  0  0  0  0  0  0  0
    2.8579   -4.9500    0.0000 H   0  0  0  0  0  0  0  0  0  0  0  0
    2.1434   -3.7125    0.0000 C   0  0  0  0  0  0  0  0  0  0  0  0
    1.4289   -4.1250    0.0000 C   0  0  0  0  0  0  0  0  0  0  0  0
    0.6083   -4.0403    0.0000 H   0  0  0  0  0  0  0  0  0  0  0  0
    1.0943   -4.8791    0.0000 H   0  0  0  0  0  0  0  0  0  0  0  0
    2.0424   -4.6767    0.0000 H   0  0  0  0  0  0  0  0  0  0  0  0
    1.2471   -3.2797    0.0000 H   0  0  0  0  0  0  0  0  0  0  0  0
    0.7145   -0.4125    0.0000 C   0  0  0  0  0  0  0  0  0  0  0  0
    0.0000    0.0000    0.0000 C   0  0  0  0  0  0  0  0  0  0  0  0
   -0.7145   -0.4125    0.0000 H   0  0  0  0  0  0  0  0  0  0  0  0
    0.0000    0.8250    0.0000 C   0  0  0  0  0  0  0  0  0  0  0  0
   -0.7145    1.2375    0.0000 H   0  0  0  0  0  0  0  0  0  0  0  0
    0.7145    1.2375    0.0000 C   0  0  0  0  0  0  0  0  0  0  0  0
    0.7145    2.0625    0.0000 H   0  0  0  0  0  0  0  0  0  0  0  0
    1.4289    0.8250    0.0000 C   0  0  0  0  0  0  0  0  0  0  0  0
    2.1434    1.2375    0.0000 Cl  0  0  0  0  0  0  0  0  0  0  0  0
    1.4289   -0.0000    0.0000 C   0  0  0  0  0  0  0  0  0  0  0  0
    2.1434   -0.4125    0.0000 H   0  0  0  0  0  0  0  0  0  0  0  0
    0.7145   -2.0625    0.0000 H   0  0  0  0  0  0  0  0  0  0  0  0
   -0.4533   -0.9607    0.0000 H   0  0  0  0  0  0  0  0  0  0  0  0
   -0.8236   -1.6020    0.0000 H   0  0  0  0  0  0  0  0  0  0  0  0
    0.4533   -3.1643    0.0000 H   0  0  0  0  0  0  0  0  0  0  0  0
    0.8236   -2.5230    0.0000 H   0  0  0  0  0  0  0  0  0  0  0  0
   -1.1270   -2.1730    0.0000 H   0  0  0  0  0  0  0  0  0  0  0  0
   -1.4289   -3.3000    0.0000 H   0  0  0  0  0  0  0  0  0  0  0  0
   -0.3020   -3.6020    0.0000 H   0  0  0  0  0  0  0  0  0  0  0  0
  1  2  1  0  0  0  0
  2  3  1  0  0  0  0
  3  4  1  0  0  0  0
  4  5  1  0  0  0  0
  5  6  2  0  0  0  0
  5  7  1  0  0  0  0
  7  8  1  0  0  0  0
  8  9  2  0  0  0  0
  9 10  1  0  0  0  0
  9 11  1  0  0  0  0
 11 12  2  0  0  0  0
 12 13  1  0  0  0  0
 12 14  1  0  0  0  0
 14 15  1  0  0  0  0
 14 16  2  0  0  0  0
  8 16  1  0  0  0  0
 16 17  1  0  0  0  0
 17 18  1  0  0  0  0
 17 19  1  0  0  0  0
 17 20  1  0  0  0  0
  7 21  1  0  0  0  0
  4 22  1  0  0  0  0
 22 23  2  0  0  0  0
 23 24  1  0  0  0  0
 23 25  1  0  0  0  0
 25 26  1  0  0  0  0
 25 27  2  0  0  0  0
 27 28  1  0  0  0  0
 27 29  1  0  0  0  0
 29 30  1  0  0  0  0
 29 31  2  0  0  0  0
 22 31  1  0  0  0  0
 31 32  1  0  0  0  0
  4 33  1  0  0  0  0
  3 34  1  0  0  0  0
  3 35  1  0  0  0  0
  2 36  1  0  0  0  0
  2 37  1  0  0  0  0
  1 38  1  0  0  0  0
  1 39  1  0  0  0  0
  1 40  1  0  0  0  0
M  END
> <Potency>
17.3103456122319

> <pIC50>
4.761694261068176

> <Outcome>
Inactive

> <is_active>
0

$$$$

  Mrv1921 08232120312D          

 31 32  0  0  0  0            999 V2000
    2.8579   -1.6500    0.0000 C   0  0  0  0  0  0  0  0  0  0  0  0
    2.8579   -2.4750    0.0000 C   0  0  0  0  0  0  0  0  0  0  0  0
    3.5724   -2.8875    0.0000 C   0  0  0  0  0  0  0  0  0  0  0  0
    4.3974   -2.8875    0.0000 H   0  0  0  0  0  0  0  0  0  0  0  0
    3.5724   -3.7125    0.0000 C   0  0  0  0  0  0  0  0  0  0  0  0
    4.2868   -4.1250    0.0000 H   0  0  0  0  0  0  0  0  0  0  0  0
    2.8579   -4.1250    0.0000 N   0  0  0  0  0  0  0  0  0  0  0  0
    2.1434   -3.7125    0.0000 C   0  0  0  0  0  0  0  0  0  0  0  0
    1.4289   -4.1250    0.0000 H   0  0  0  0  0  0  0  0  0  0  0  0
    2.1434   -2.8875    0.0000 C   0  0  0  0  0  0  0  0  0  0  0  0
    1.4289   -2.4750    0.0000 N   0  0  0  0  0  0  0  0  0  0  0  0
    1.4289   -1.6500    0.0000 C   0  0  0  0  0  0  0  0  0  0  0  0
    2.1434   -1.2375    0.0000 O   0  0  0  0  0  0  0  0  0  0  0  0
    0.7145   -1.2375    0.0000 C   0  0  0  0  0  0  0  0  0  0  0  0
    0.7145   -0.4125    0.0000 C   0  0  0  0  0  0  0  0  0  0  0  0
    0.0000    0.0000    0.0000 C   0  0  0  0  0  0  0  0  0  0  0  0
   -0.7145   -0.4125    0.0000 H   0  0  0  0  0  0  0  0  0  0  0  0
    0.0000    0.8250    0.0000 C   0  0  0  0  0  0  0  0  0  0  0  0
   -0.7145    1.2375    0.0000 H   0  0  0  0  0  0  0  0  0  0  0  0
    0.7145    1.2375    0.0000 C   0  0  0  0  0  0  0  0  0  0  0  0
    0.7145    2.0625    0.0000 H   0  0  0  0  0  0  0  0  0  0  0  0
    1.4289    0.8250    0.0000 C   0  0  0  0  0  0  0  0  0  0  0  0
    2.1434    1.2375    0.0000 Br  0  0  0  0  0  0  0  0  0  0  0  0
    1.4289    0.0000    0.0000 C   0  0  0  0  0  0  0  0  0  0  0  0
    2.1434   -0.4125    0.0000 H   0  0  0  0  0  0  0  0  0  0  0  0
   -0.1091   -1.2855    0.0000 H   0  0  0  0  0  0  0  0  0  0  0  0
    0.2611   -1.9268    0.0000 H   0  0  0  0  0  0  0  0  0  0  0  0
    0.7145   -2.8875    0.0000 H   0  0  0  0  0  0  0  0  0  0  0  0
    3.5724   -2.0625    0.0000 H   0  0  0  0  0  0  0  0  0  0  0  0
    3.5724   -1.2375    0.0000 H   0  0  0  0  0  0  0  0  0  0  0  0
    2.8579   -0.8250    0.0000 H   0  0  0  0  0  0  0  0  0  0  0  0
  1  2  1  0  0  0  0
  2  3  2  0  0  0  0
  3  4  1  0  0  0  0
  3  5  1  0  0  0  0
  5  6  1  0  0  0  0
  5  7  2  0  0  0  0
  7  8  1  0  0  0  0
  8  9  1  0  0  0  0
  8 10  2  0  0  0  0
  2 10  1  0  0  0  0
 10 11  1  0  0  0  0
 11 12  1  0  0  0  0
 12 13  2  0  0  0  0
 12 14  1  0  0  0  0
 14 15  1  0  0  0  0
 15 16  2  0  0  0  0
 16 17  1  0  0  0  0
 16 18  1  0  0  0  0
 18 19  1  0  0  0  0
 18 20  2  0  0  0  0
 20 21  1  0  0  0  0
 20 22  1  0  0  0  0
 22 23  1  0  0  0  0
 22 24  2  0  0  0  0
 15 24  1  0  0  0  0
 24 25  1  0  0  0  0
 14 26  1  0  0  0  0
 14 27  1  0  0  0  0
 11 28  1  0  0  0  0
  1 29  1  0  0  0  0
  1 30  1  0  0  0  0
  1 31  1  0  0  0  0
M  END
> <Potency>
20.5939440724842

> <pIC50>
4.686260471017582

> <Outcome>
Inactive

> <is_active>
0

$$$$

  Mrv1921 08232120312D          

 37 38  0  0  0  0            999 V2000
    1.4289   -2.4750    0.0000 C   0  0  0  0  0  0  0  0  0  0  0  0
    1.4289   -3.3000    0.0000 C   0  0  0  0  0  0  0  0  0  0  0  0
    2.1434   -3.7125    0.0000 C   0  0  0  0  0  0  0  0  0  0  0  0
    2.8579   -3.3000    0.0000 H   0  0  0  0  0  0  0  0  0  0  0  0
    2.1434   -4.5375    0.0000 C   0  0  0  0  0  0  0  0  0  0  0  0
    2.8579   -4.9500    0.0000 H   0  0  0  0  0  0  0  0  0  0  0  0
    1.4289   -4.9500    0.0000 N   0  0  0  0  0  0  0  0  0  0  0  0
    0.7145   -4.5375    0.0000 C   0  0  0  0  0  0  0  0  0  0  0  0
    0.0000   -4.9500    0.0000 H   0  0  0  0  0  0  0  0  0  0  0  0
    0.7145   -3.7125    0.0000 C   0  0  0  0  0  0  0  0  0  0  0  0
    0.0000   -3.3000    0.0000 N   0  0  0  0  0  0  0  0  0  0  0  0
   -0.7145   -3.7125    0.0000 C   0  0  0  0  0  0  0  0  0  0  0  0
   -0.7145   -4.5375    0.0000 O   0  0  0  0  0  0  0  0  0  0  0  0
   -1.4289   -3.3000    0.0000 C   0  0  0  0  0  0  0  0  0  0  0  0
   -1.0164   -2.5855    0.0000 C   0  0  0  0  0  0  0  0  0  0  0  0
   -0.3020   -2.9980    0.0000 H   0  0  0  0  0  0  0  0  0  0  0  0
   -0.6039   -1.8711    0.0000 H   0  0  0  0  0  0  0  0  0  0  0  0
   -1.7309   -2.1730    0.0000 H   0  0  0  0  0  0  0  0  0  0  0  0
   -1.8414   -4.0145    0.0000 C   0  0  0  0  0  0  0  0  0  0  0  0
   -2.5559   -3.6020    0.0000 H   0  0  0  0  0  0  0  0  0  0  0  0
   -2.2539   -4.7289    0.0000 H   0  0  0  0  0  0  0  0  0  0  0  0
   -1.1270   -4.4270    0.0000 H   0  0  0  0  0  0  0  0  0  0  0  0
   -2.1434   -2.8875    0.0000 C   0  0  0  0  0  0  0  0  0  0  0  0
   -2.8579   -3.3000    0.0000 C   0  0  0  0  0  0  0  0  0  0  0  0
   -3.3601   -3.9545    0.0000 H   0  0  0  0  0  0  0  0  0  0  0  0
   -3.5724   -2.8875    0.0000 C   0  0  0  0  0  0  0  0  0  0  0  0
   -4.2868   -3.3000    0.0000 H   0  0  0  0  0  0  0  0  0  0  0  0
   -3.5724   -2.0625    0.0000 C   0  0  0  0  0  0  0  0  0  0  0  0
   -4.2868   -1.6500    0.0000 H   0  0  0  0  0  0  0  0  0  0  0  0
   -2.8579   -1.6500    0.0000 C   0  0  0  0  0  0  0  0  0  0  0  0
   -2.8579   -0.8250    0.0000 Cl  0  0  0  0  0  0  0  0  0  0  0  0
   -2.1434   -2.0625    0.0000 C   0  0  0  0  0  0  0  0  0  0  0  0
   -1.8277   -1.3003    0.0000 H   0  0  0  0  0  0  0  0  0  0  0  0
    0.0000   -2.4750    0.0000 H   0  0  0  0  0  0  0  0  0  0  0  0
    2.2539   -2.4750    0.0000 H   0  0  0  0  0  0  0  0  0  0  0  0
    1.4289   -1.6500    0.0000 H   0  0  0  0  0  0  0  0  0  0  0  0
    0.6039   -2.4750    0.0000 H   0  0  0  0  0  0  0  0  0  0  0  0
  1  2  1  0  0  0  0
  2  3  2  0  0  0  0
  3  4  1  0  0  0  0
  3  5  1  0  0  0  0
  5  6  1  0  0  0  0
  5  7  2  0  0  0  0
  7  8  1  0  0  0  0
  8  9  1  0  0  0  0
  8 10  2  0  0  0  0
  2 10  1  0  0  0  0
 10 11  1  0  0  0  0
 11 12  1  0  0  0  0
 12 13  2  0  0  0  0
 12 14  1  0  0  0  0
 14 15  1  0  0  0  0
 15 16  1  0  0  0  0
 15 17  1  0  0  0  0
 15 18  1  0  0  0  0
 14 19  1  0  0  0  0
 19 20  1  0  0  0  0
 19 21  1  0  0  0  0
 19 22  1  0  0  0  0
 14 23  1  0  0  0  0
 23 24  2  0  0  0  0
 24 25  1  0  0  0  0
 24 26  1  0  0  0  0
 26 27  1  0  0  0  0
 26 28  2  0  0  0  0
 28 29  1  0  0  0  0
 28 30  1  0  0  0  0
 30 31  1  0  0  0  0
 30 32  2  0  0  0  0
 23 32  1  0  0  0  0
 32 33  1  0  0  0  0
 11 34  1  0  0  0  0
  1 35  1  0  0  0  0
  1 36  1  0  0  0  0
  1 37  1  0  0  0  0
M  END
> <Potency>
96.9383202483582

> <pIC50>
4.013504510022681

> <Outcome>
Inactive

> <is_active>
0

$$$$

  Mrv1921 08232120312D          

 37 38  0  0  0  0            999 V2000
    0.7145   -1.2375    0.0000 C   0  0  0  0  0  0  0  0  0  0  0  0
    0.7145   -2.0625    0.0000 C   0  0  0  0  0  0  0  0  0  0  0  0
    1.4289   -2.4750    0.0000 C   0  0  0  0  0  0  0  0  0  0  0  0
    2.1434   -2.0625    0.0000 H   0  0  0  0  0  0  0  0  0  0  0  0
    1.4289   -3.3000    0.0000 C   0  0  0  0  0  0  0  0  0  0  0  0
    2.1434   -3.7125    0.0000 H   0  0  0  0  0  0  0  0  0  0  0  0
    0.7145   -3.7125    0.0000 C   0  0  0  0  0  0  0  0  0  0  0  0
    0.7145   -4.5375    0.0000 S   0  0  0  0  0  0  0  0  0  0  0  0
   -0.1105   -4.5375    0.0000 O   0  0  0  0  0  0  0  0  0  0  0  0
    1.5395   -4.5375    0.0000 O   0  0  0  0  0  0  0  0  0  0  0  0
    0.7145   -5.3625    0.0000 N   0  0  0  0  0  0  0  0  0  0  0  0
    1.4289   -5.7750    0.0000 C   0  0  0  0  0  0  0  0  0  0  0  0
    2.2525   -5.7270    0.0000 H   0  0  0  0  0  0  0  0  0  0  0  0
    1.8823   -5.0857    0.0000 H   0  0  0  0  0  0  0  0  0  0  0  0
    1.4289   -6.6000    0.0000 C   0  0  0  0  0  0  0  0  0  0  0  0
    1.8823   -7.2893    0.0000 H   0  0  0  0  0  0  0  0  0  0  0  0
    2.2525   -6.6480    0.0000 H   0  0  0  0  0  0  0  0  0  0  0  0
    0.7145   -7.0125    0.0000 N   0  0  0  0  0  0  0  0  0  0  0  0
    0.7145   -7.8375    0.0000 C   0  0  0  0  0  0  0  0  0  0  0  0
    1.4289   -8.2500    0.0000 O   0  0  0  0  0  0  0  0  0  0  0  0
   -0.0000   -8.2500    0.0000 C   0  0  0  0  0  0  0  0  0  0  0  0
   -0.0000   -9.0750    0.0000 Cl  0  0  0  0  0  0  0  0  0  0  0  0
   -0.4533   -7.5607    0.0000 H   0  0  0  0  0  0  0  0  0  0  0  0
   -0.8236   -8.2020    0.0000 H   0  0  0  0  0  0  0  0  0  0  0  0
   -0.0000   -6.6000    0.0000 C   0  0  0  0  0  0  0  0  0  0  0  0
   -0.8236   -6.6480    0.0000 H   0  0  0  0  0  0  0  0  0  0  0  0
   -0.4533   -7.2893    0.0000 H   0  0  0  0  0  0  0  0  0  0  0  0
   -0.0000   -5.7750    0.0000 C   0  0  0  0  0  0  0  0  0  0  0  0
   -0.4533   -5.0857    0.0000 H   0  0  0  0  0  0  0  0  0  0  0  0
   -0.8236   -5.7270    0.0000 H   0  0  0  0  0  0  0  0  0  0  0  0
    0.0000   -3.3000    0.0000 C   0  0  0  0  0  0  0  0  0  0  0  0
   -0.7145   -3.7125    0.0000 H   0  0  0  0  0  0  0  0  0  0  0  0
    0.0000   -2.4750    0.0000 C   0  0  0  0  0  0  0  0  0  0  0  0
   -0.7145   -2.0625    0.0000 H   0  0  0  0  0  0  0  0  0  0  0  0
    1.5395   -1.2375    0.0000 H   0  0  0  0  0  0  0  0  0  0  0  0
    0.7145   -0.4125    0.0000 H   0  0  0  0  0  0  0  0  0  0  0  0
   -0.1105   -1.2375    0.0000 H   0  0  0  0  0  0  0  0  0  0  0  0
  1  2  1  0  0  0  0
  2  3  2  0  0  0  0
  3  4  1  0  0  0  0
  3  5  1  0  0  0  0
  5  6  1  0  0  0  0
  5  7  2  0  0  0  0
  7  8  1  0  0  0  0
  8  9  2  0  0  0  0
  8 10  2  0  0  0  0
  8 11  1  0  0  0  0
 11 12  1  0  0  0  0
 12 13  1  0  0  0  0
 12 14  1  0  0  0  0
 12 15  1  0  0  0  0
 15 16  1  0  0  0  0
 15 17  1  0  0  0  0
 15 18  1  0  0  0  0
 18 19  1  0  0  0  0
 19 20  2  0  0  0  0
 19 21  1  0  0  0  0
 21 22  1  0  0  0  0
 21 23  1  0  0  0  0
 21 24  1  0  0  0  0
 18 25  1  0  0  0  0
 25 26  1  0  0  0  0
 25 27  1  0  0  0  0
 25 28  1  0  0  0  0
 11 28  1  0  0  0  0
 28 29  1  0  0  0  0
 28 30  1  0  0  0  0
  7 31  1  0  0  0  0
 31 32  1  0  0  0  0
 31 33  2  0  0  0  0
  2 33  1  0  0  0  0
 33 34  1  0  0  0  0
  1 35  1  0  0  0  0
  1 36  1  0  0  0  0
  1 37  1  0  0  0  0
M  END
> <Potency>
21.0262152497193

> <pIC50>
4.677238893936946

> <Outcome>
Inactive

> <is_active>
0

$$$$

  Mrv1921 08232120312D          

 65 67  0  0  0  0            999 V2000
    0.0000   -3.9039    0.0000 C   0  0  0  0  0  0  0  0  0  0  0  0
    0.4125   -3.1895    0.0000 C   0  0  0  0  0  0  0  0  0  0  0  0
    0.0000   -2.4750    0.0000 C   0  0  0  0  0  0  0  0  0  0  0  0
   -0.8250   -2.4750    0.0000 O   0  0  0  0  0  0  0  0  0  0  0  0
    0.4125   -1.7605    0.0000 N   0  0  0  0  0  0  0  0  0  0  0  0
    0.0000   -1.0461    0.0000 C   0  0  0  0  0  0  0  0  0  0  0  0
   -0.8250   -1.0461    0.0000 C   0  0  0  0  0  0  0  0  0  0  0  0
   -1.2375   -1.7605    0.0000 H   0  0  0  0  0  0  0  0  0  0  0  0
   -1.2375   -0.3316    0.0000 C   0  0  0  0  0  0  0  0  0  0  0  0
   -2.0625   -0.3316    0.0000 H   0  0  0  0  0  0  0  0  0  0  0  0
   -0.8250    0.3829    0.0000 C   0  0  0  0  0  0  0  0  0  0  0  0
   -1.2375    1.0974    0.0000 C   0  0  0  0  0  0  0  0  0  0  0  0
   -1.6500    1.8118    0.0000 C   0  0  0  0  0  0  0  0  0  0  0  0
   -0.9355    2.2243    0.0000 H   0  0  0  0  0  0  0  0  0  0  0  0
   -2.0625    2.5263    0.0000 H   0  0  0  0  0  0  0  0  0  0  0  0
   -2.3645    1.3993    0.0000 H   0  0  0  0  0  0  0  0  0  0  0  0
   -1.9520    0.6849    0.0000 C   0  0  0  0  0  0  0  0  0  0  0  0
   -2.7699    0.5772    0.0000 H   0  0  0  0  0  0  0  0  0  0  0  0
   -2.1655   -0.1120    0.0000 H   0  0  0  0  0  0  0  0  0  0  0  0
   -1.2975    0.1826    0.0000 H   0  0  0  0  0  0  0  0  0  0  0  0
   -0.5230    1.5099    0.0000 C   0  0  0  0  0  0  0  0  0  0  0  0
   -0.4153    0.6919    0.0000 H   0  0  0  0  0  0  0  0  0  0  0  0
    0.2739    1.2963    0.0000 H   0  0  0  0  0  0  0  0  0  0  0  0
   -0.0208    2.1644    0.0000 H   0  0  0  0  0  0  0  0  0  0  0  0
    0.0000    0.3829    0.0000 C   0  0  0  0  0  0  0  0  0  0  0  0
    0.8194    0.4785    0.0000 H   0  0  0  0  0  0  0  0  0  0  0  0
    0.4125   -0.3316    0.0000 C   0  0  0  0  0  0  0  0  0  0  0  0
    0.8250   -1.0461    0.0000 H   0  0  0  0  0  0  0  0  0  0  0  0
    1.2375   -1.7605    0.0000 C   0  0  0  0  0  0  0  0  0  0  0  0
    1.6500   -2.4750    0.0000 C   0  0  0  0  0  0  0  0  0  0  0  0
    1.2375   -3.1895    0.0000 O   0  0  0  0  0  0  0  0  0  0  0  0
    2.4750   -2.4750    0.0000 N   0  0  0  0  0  0  0  0  0  0  0  0
    2.8875   -3.1895    0.0000 C   0  0  0  0  0  0  0  0  0  0  0  0
    3.7125   -3.1895    0.0000 C   0  0  0  0  0  0  0  0  0  0  0  0
    4.1250   -2.4750    0.0000 H   0  0  0  0  0  0  0  0  0  0  0  0
    4.1250   -3.9039    0.0000 C   0  0  0  0  0  0  0  0  0  0  0  0
    4.9500   -3.9039    0.0000 H   0  0  0  0  0  0  0  0  0  0  0  0
    3.7125   -4.6184    0.0000 C   0  0  0  0  0  0  0  0  0  0  0  0
    4.1250   -5.3329    0.0000 O   0  0  0  0  0  0  0  0  0  0  0  0
    4.9500   -5.3329    0.0000 C   0  0  0  0  0  0  0  0  0  0  0  0
    4.9500   -6.1579    0.0000 H   0  0  0  0  0  0  0  0  0  0  0  0
    5.7750   -5.3329    0.0000 H   0  0  0  0  0  0  0  0  0  0  0  0
    4.9500   -4.5079    0.0000 H   0  0  0  0  0  0  0  0  0  0  0  0
    2.8875   -4.6184    0.0000 C   0  0  0  0  0  0  0  0  0  0  0  0
    2.4750   -5.3329    0.0000 H   0  0  0  0  0  0  0  0  0  0  0  0
    2.4750   -3.9039    0.0000 C   0  0  0  0  0  0  0  0  0  0  0  0
    1.6500   -3.9039    0.0000 C   0  0  0  0  0  0  0  0  0  0  0  0
    0.8250   -3.9039    0.0000 H   0  0  0  0  0  0  0  0  0  0  0  0
    1.2375   -4.6184    0.0000 H   0  0  0  0  0  0  0  0  0  0  0  0
    2.0625   -4.6184    0.0000 H   0  0  0  0  0  0  0  0  0  0  0  0
    3.1895   -2.0625    0.0000 H   0  0  0  0  0  0  0  0  0  0  0  0
    1.6500   -1.0461    0.0000 C   0  0  0  0  0  0  0  0  0  0  0  0
    1.2375   -0.3316    0.0000 C   0  0  0  0  0  0  0  0  0  0  0  0
    2.0625   -0.3316    0.0000 H   0  0  0  0  0  0  0  0  0  0  0  0
    1.6500    0.3829    0.0000 C   0  0  0  0  0  0  0  0  0  0  0  0
    1.6973    1.2065    0.0000 H   0  0  0  0  0  0  0  0  0  0  0  0
    2.4750    0.3829    0.0000 C   0  0  0  0  0  0  0  0  0  0  0  0
    2.8875    1.0974    0.0000 H   0  0  0  0  0  0  0  0  0  0  0  0
    2.8875   -0.3316    0.0000 N   0  0  0  0  0  0  0  0  0  0  0  0
    2.4750   -1.0461    0.0000 C   0  0  0  0  0  0  0  0  0  0  0  0
    3.1895   -1.4586    0.0000 H   0  0  0  0  0  0  0  0  0  0  0  0
    2.0625   -1.7605    0.0000 H   0  0  0  0  0  0  0  0  0  0  0  0
    0.8250   -2.4750    0.0000 H   0  0  0  0  0  0  0  0  0  0  0  0
   -0.8250   -3.9039    0.0000 H   0  0  0  0  0  0  0  0  0  0  0  0
    0.4125   -4.6184    0.0000 H   0  0  0  0  0  0  0  0  0  0  0  0
  1  2  2  0  0  0  0
  2  3  1  0  0  0  0
  3  4  2  0  0  0  0
  3  5  1  0  0  0  0
  5  6  1  0  0  0  0
  6  7  2  0  0  0  0
  7  8  1  0  0  0  0
  7  9  1  0  0  0  0
  9 10  1  0  0  0  0
  9 11  2  0  0  0  0
 11 12  1  0  0  0  0
 12 13  1  0  0  0  0
 13 14  1  0  0  0  0
 13 15  1  0  0  0  0
 13 16  1  0  0  0  0
 12 17  1  0  0  0  0
 17 18  1  0  0  0  0
 17 19  1  0  0  0  0
 17 20  1  0  0  0  0
 12 21  1  0  0  0  0
 21 22  1  0  0  0  0
 21 23  1  0  0  0  0
 21 24  1  0  0  0  0
 11 25  1  0  0  0  0
 25 26  1  0  0  0  0
 25 27  2  0  0  0  0
  6 27  1  0  0  0  0
 27 28  1  0  0  0  0
  5 29  1  0  0  0  0
 29 30  1  0  0  0  0
 30 31  2  0  0  0  0
 30 32  1  0  0  0  0
 32 33  1  0  0  0  0
 33 34  2  0  0  0  0
 34 35  1  0  0  0  0
 34 36  1  0  0  0  0
 36 37  1  0  0  0  0
 36 38  2  0  0  0  0
 38 39  1  0  0  0  0
 39 40  1  0  0  0  0
 40 41  1  0  0  0  0
 40 42  1  0  0  0  0
 40 43  1  0  0  0  0
 38 44  1  0  0  0  0
 44 45  1  0  0  0  0
 44 46  2  0  0  0  0
 33 46  1  0  0  0  0
 46 47  1  0  0  0  0
 47 48  1  0  0  0  0
 47 49  1  0  0  0  0
 47 50  1  0  0  0  0
 32 51  1  0  0  0  0
 29 52  1  0  0  0  0
 52 53  2  0  0  0  0
 53 54  1  0  0  0  0
 53 55  1  0  0  0  0
 55 56  1  0  0  0  0
 55 57  2  0  0  0  0
 57 58  1  0  0  0  0
 57 59  1  0  0  0  0
 59 60  2  0  0  0  0
 52 60  1  0  0  0  0
 60 61  1  0  0  0  0
 29 62  1  0  0  0  0
  2 63  1  0  0  0  0
  1 64  1  0  0  0  0
  1 65  1  0  0  0  0
M  END
> <Potency>
99.03

> <pIC50>
4.0042332209500255

> <Outcome>
Inactive

> <is_active>
0

$$$$

  Mrv1921 08232120312D          

 62 65  0  0  0  0            999 V2000
    0.1914   -1.7605    0.0000 C   0  0  0  0  0  0  0  0  0  0  0  0
    0.6039   -2.4750    0.0000 C   0  0  0  0  0  0  0  0  0  0  0  0
    1.4289   -2.4750    0.0000 C   0  0  0  0  0  0  0  0  0  0  0  0
    1.8414   -1.7605    0.0000 O   0  0  0  0  0  0  0  0  0  0  0  0
    1.8414   -3.1895    0.0000 N   0  0  0  0  0  0  0  0  0  0  0  0
    1.4289   -3.9039    0.0000 C   0  0  0  0  0  0  0  0  0  0  0  0
    1.8414   -4.6184    0.0000 C   0  0  0  0  0  0  0  0  0  0  0  0
    2.2539   -3.9039    0.0000 H   0  0  0  0  0  0  0  0  0  0  0  0
    1.4289   -5.3329    0.0000 C   0  0  0  0  0  0  0  0  0  0  0  0
    1.8414   -6.0474    0.0000 H   0  0  0  0  0  0  0  0  0  0  0  0
    0.6039   -5.3329    0.0000 C   0  0  0  0  0  0  0  0  0  0  0  0
    0.1914   -6.0474    0.0000 C   0  0  0  0  0  0  0  0  0  0  0  0
   -0.5838   -5.7652    0.0000 C   0  0  0  0  0  0  0  0  0  0  0  0
   -0.3016   -4.9899    0.0000 H   0  0  0  0  0  0  0  0  0  0  0  0
   -1.3591   -5.4830    0.0000 H   0  0  0  0  0  0  0  0  0  0  0  0
   -0.8660   -6.5404    0.0000 H   0  0  0  0  0  0  0  0  0  0  0  0
    0.8234   -6.5777    0.0000 C   0  0  0  0  0  0  0  0  0  0  0  0
    1.4235   -7.1438    0.0000 H   0  0  0  0  0  0  0  0  0  0  0  0
    1.5810   -6.2509    0.0000 H   0  0  0  0  0  0  0  0  0  0  0  0
    0.0482   -6.8598    0.0000 C   0  0  0  0  0  0  0  0  0  0  0  0
   -0.2873   -7.6135    0.0000 H   0  0  0  0  0  0  0  0  0  0  0  0
    0.3934   -7.6091    0.0000 H   0  0  0  0  0  0  0  0  0  0  0  0
    0.1914   -4.6184    0.0000 C   0  0  0  0  0  0  0  0  0  0  0  0
   -0.4264   -4.0717    0.0000 H   0  0  0  0  0  0  0  0  0  0  0  0
    0.6039   -3.9039    0.0000 C   0  0  0  0  0  0  0  0  0  0  0  0
    1.0164   -3.1895    0.0000 H   0  0  0  0  0  0  0  0  0  0  0  0
    2.6664   -3.1895    0.0000 C   0  0  0  0  0  0  0  0  0  0  0  0
    3.0789   -2.4750    0.0000 C   0  0  0  0  0  0  0  0  0  0  0  0
    2.6664   -1.7605    0.0000 O   0  0  0  0  0  0  0  0  0  0  0  0
    3.9039   -2.4750    0.0000 N   0  0  0  0  0  0  0  0  0  0  0  0
    4.3164   -1.7605    0.0000 C   0  0  0  0  0  0  0  0  0  0  0  0
    3.9039   -1.0461    0.0000 C   0  0  0  0  0  0  0  0  0  0  0  0
    3.0789   -1.0461    0.0000 H   0  0  0  0  0  0  0  0  0  0  0  0
    4.3164   -0.3316    0.0000 C   0  0  0  0  0  0  0  0  0  0  0  0
    3.9039    0.3829    0.0000 H   0  0  0  0  0  0  0  0  0  0  0  0
    5.1414   -0.3316    0.0000 C   0  0  0  0  0  0  0  0  0  0  0  0
    5.5539    0.3829    0.0000 H   0  0  0  0  0  0  0  0  0  0  0  0
    5.5539   -1.0461    0.0000 C   0  0  0  0  0  0  0  0  0  0  0  0
    6.3789   -1.0461    0.0000 C   0  0  0  0  0  0  0  0  0  0  0  0
    6.7914   -0.3316    0.0000 C   0  0  0  0  0  0  0  0  0  0  0  0
    7.5059   -0.7441    0.0000 H   0  0  0  0  0  0  0  0  0  0  0  0
    7.2039    0.3829    0.0000 H   0  0  0  0  0  0  0  0  0  0  0  0
    6.0770    0.0809    0.0000 H   0  0  0  0  0  0  0  0  0  0  0  0
    6.4269   -1.8697    0.0000 H   0  0  0  0  0  0  0  0  0  0  0  0
    7.0682   -1.4994    0.0000 H   0  0  0  0  0  0  0  0  0  0  0  0
    5.1414   -1.7605    0.0000 C   0  0  0  0  0  0  0  0  0  0  0  0
    5.5539   -2.4750    0.0000 H   0  0  0  0  0  0  0  0  0  0  0  0
    4.3164   -3.1895    0.0000 H   0  0  0  0  0  0  0  0  0  0  0  0
    3.0789   -3.9039    0.0000 C   0  0  0  0  0  0  0  0  0  0  0  0
    3.9039   -3.9039    0.0000 C   0  0  0  0  0  0  0  0  0  0  0  0
    3.4914   -3.1895    0.0000 H   0  0  0  0  0  0  0  0  0  0  0  0
    4.3164   -4.6184    0.0000 C   0  0  0  0  0  0  0  0  0  0  0  0
    5.1414   -4.6184    0.0000 H   0  0  0  0  0  0  0  0  0  0  0  0
    3.9039   -5.3329    0.0000 C   0  0  0  0  0  0  0  0  0  0  0  0
    4.3164   -6.0474    0.0000 H   0  0  0  0  0  0  0  0  0  0  0  0
    3.0789   -5.3329    0.0000 N   0  0  0  0  0  0  0  0  0  0  0  0
    2.6664   -4.6184    0.0000 C   0  0  0  0  0  0  0  0  0  0  0  0
    3.4914   -4.6184    0.0000 H   0  0  0  0  0  0  0  0  0  0  0  0
    2.2539   -2.4750    0.0000 H   0  0  0  0  0  0  0  0  0  0  0  0
    0.1914   -3.1895    0.0000 H   0  0  0  0  0  0  0  0  0  0  0  0
    0.6039   -1.0461    0.0000 H   0  0  0  0  0  0  0  0  0  0  0  0
   -0.6336   -1.7605    0.0000 H   0  0  0  0  0  0  0  0  0  0  0  0
  1  2  2  0  0  0  0
  2  3  1  0  0  0  0
  3  4  2  0  0  0  0
  3  5  1  0  0  0  0
  5  6  1  0  0  0  0
  6  7  2  0  0  0  0
  7  8  1  0  0  0  0
  7  9  1  0  0  0  0
  9 10  1  0  0  0  0
  9 11  2  0  0  0  0
 11 12  1  0  0  0  0
 12 13  1  0  0  0  0
 13 14  1  0  0  0  0
 13 15  1  0  0  0  0
 13 16  1  0  0  0  0
 12 17  1  0  0  0  0
 17 18  1  0  0  0  0
 17 19  1  0  0  0  0
 17 20  1  0  0  0  0
 12 20  1  0  0  0  0
 20 21  1  0  0  0  0
 20 22  1  0  0  0  0
 11 23  1  0  0  0  0
 23 24  1  0  0  0  0
 23 25  2  0  0  0  0
  6 25  1  0  0  0  0
 25 26  1  0  0  0  0
  5 27  1  0  0  0  0
 27 28  1  0  0  0  0
 28 29  2  0  0  0  0
 28 30  1  0  0  0  0
 30 31  1  0  0  0  0
 31 32  2  0  0  0  0
 32 33  1  0  0  0  0
 32 34  1  0  0  0  0
 34 35  1  0  0  0  0
 34 36  2  0  0  0  0
 36 37  1  0  0  0  0
 36 38  1  0  0  0  0
 38 39  1  0  0  0  0
 39 40  1  0  0  0  0
 40 41  1  0  0  0  0
 40 42  1  0  0  0  0
 40 43  1  0  0  0  0
 39 44  1  0  0  0  0
 39 45  1  0  0  0  0
 38 46  2  0  0  0  0
 31 46  1  0  0  0  0
 46 47  1  0  0  0  0
 30 48  1  0  0  0  0
 27 49  1  0  0  0  0
 49 50  2  0  0  0  0
 50 51  1  0  0  0  0
 50 52  1  0  0  0  0
 52 53  1  0  0  0  0
 52 54  2  0  0  0  0
 54 55  1  0  0  0  0
 54 56  1  0  0  0  0
 56 57  2  0  0  0  0
 49 57  1  0  0  0  0
 57 58  1  0  0  0  0
 27 59  1  0  0  0  0
  2 60  1  0  0  0  0
  1 61  1  0  0  0  0
  1 62  1  0  0  0  0
M  END
> <Potency>
99.03

> <pIC50>
4.0042332209500255

> <Outcome>
Inactive

> <is_active>
0

$$$$

  Mrv1921 08232120312D          

 56 59  0  0  0  0            999 V2000
    0.0000   -3.9039    0.0000 C   0  0  0  0  0  0  0  0  0  0  0  0
    0.4125   -3.1895    0.0000 C   0  0  0  0  0  0  0  0  0  0  0  0
    0.0000   -2.4750    0.0000 C   0  0  0  0  0  0  0  0  0  0  0  0
   -0.8250   -2.4750    0.0000 O   0  0  0  0  0  0  0  0  0  0  0  0
    0.4125   -1.7605    0.0000 N   0  0  0  0  0  0  0  0  0  0  0  0
    0.0000   -1.0461    0.0000 C   0  0  0  0  0  0  0  0  0  0  0  0
   -0.8250   -1.0461    0.0000 C   0  0  0  0  0  0  0  0  0  0  0  0
   -1.2375   -1.7605    0.0000 H   0  0  0  0  0  0  0  0  0  0  0  0
   -1.2375   -0.3316    0.0000 C   0  0  0  0  0  0  0  0  0  0  0  0
   -2.0625   -0.3316    0.0000 H   0  0  0  0  0  0  0  0  0  0  0  0
   -0.8250    0.3829    0.0000 C   0  0  0  0  0  0  0  0  0  0  0  0
   -1.2375    1.0974    0.0000 C   0  0  0  0  0  0  0  0  0  0  0  0
   -0.6055    1.6277    0.0000 C   0  0  0  0  0  0  0  0  0  0  0  0
   -0.0752    0.9957    0.0000 H   0  0  0  0  0  0  0  0  0  0  0  0
    0.0265    2.1580    0.0000 H   0  0  0  0  0  0  0  0  0  0  0  0
   -1.1358    2.2596    0.0000 H   0  0  0  0  0  0  0  0  0  0  0  0
   -2.0127    0.8152    0.0000 C   0  0  0  0  0  0  0  0  0  0  0  0
   -2.8031    0.5786    0.0000 H   0  0  0  0  0  0  0  0  0  0  0  0
   -2.1085   -0.0042    0.0000 H   0  0  0  0  0  0  0  0  0  0  0  0
   -1.8695    1.6277    0.0000 C   0  0  0  0  0  0  0  0  0  0  0  0
   -2.3545    2.2950    0.0000 H   0  0  0  0  0  0  0  0  0  0  0  0
   -2.6910    1.7034    0.0000 H   0  0  0  0  0  0  0  0  0  0  0  0
    0.0000    0.3829    0.0000 C   0  0  0  0  0  0  0  0  0  0  0  0
    0.7824    0.6446    0.0000 H   0  0  0  0  0  0  0  0  0  0  0  0
    0.4125   -0.3316    0.0000 C   0  0  0  0  0  0  0  0  0  0  0  0
    0.8250   -1.0461    0.0000 H   0  0  0  0  0  0  0  0  0  0  0  0
    1.2375   -1.7605    0.0000 C   0  0  0  0  0  0  0  0  0  0  0  0
    1.6500   -2.4750    0.0000 C   0  0  0  0  0  0  0  0  0  0  0  0
    1.2375   -3.1895    0.0000 O   0  0  0  0  0  0  0  0  0  0  0  0
    2.4750   -2.4750    0.0000 N   0  0  0  0  0  0  0  0  0  0  0  0
    2.8875   -3.1895    0.0000 C   0  0  0  0  0  0  0  0  0  0  0  0
    3.7125   -3.1895    0.0000 C   0  0  0  0  0  0  0  0  0  0  0  0
    4.1250   -2.4750    0.0000 H   0  0  0  0  0  0  0  0  0  0  0  0
    4.1250   -3.9039    0.0000 C   0  0  0  0  0  0  0  0  0  0  0  0
    4.9500   -3.9039    0.0000 H   0  0  0  0  0  0  0  0  0  0  0  0
    3.7125   -4.6184    0.0000 C   0  0  0  0  0  0  0  0  0  0  0  0
    4.1250   -5.3329    0.0000 Br  0  0  0  0  0  0  0  0  0  0  0  0
    2.8875   -4.6184    0.0000 C   0  0  0  0  0  0  0  0  0  0  0  0
    2.4750   -5.3329    0.0000 H   0  0  0  0  0  0  0  0  0  0  0  0
    2.4750   -3.9039    0.0000 C   0  0  0  0  0  0  0  0  0  0  0  0
    1.6500   -3.9039    0.0000 H   0  0  0  0  0  0  0  0  0  0  0  0
    3.1895   -2.0625    0.0000 H   0  0  0  0  0  0  0  0  0  0  0  0
    1.6500   -1.0461    0.0000 C   0  0  0  0  0  0  0  0  0  0  0  0
    1.2375   -0.3316    0.0000 C   0  0  0  0  0  0  0  0  0  0  0  0
    0.8250    0.3829    0.0000 H   0  0  0  0  0  0  0  0  0  0  0  0
    1.6500    0.3829    0.0000 C   0  0  0  0  0  0  0  0  0  0  0  0
    1.7704    1.1990    0.0000 H   0  0  0  0  0  0  0  0  0  0  0  0
    2.4750    0.3829    0.0000 C   0  0  0  0  0  0  0  0  0  0  0  0
    2.8875    1.0974    0.0000 H   0  0  0  0  0  0  0  0  0  0  0  0
    2.8875   -0.3316    0.0000 N   0  0  0  0  0  0  0  0  0  0  0  0
    2.4750   -1.0461    0.0000 C   0  0  0  0  0  0  0  0  0  0  0  0
    3.1895   -1.4586    0.0000 H   0  0  0  0  0  0  0  0  0  0  0  0
    2.0625   -1.7605    0.0000 H   0  0  0  0  0  0  0  0  0  0  0  0
    0.8250   -2.4750    0.0000 H   0  0  0  0  0  0  0  0  0  0  0  0
   -0.8250   -3.9039    0.0000 H   0  0  0  0  0  0  0  0  0  0  0  0
    0.4125   -4.6184    0.0000 H   0  0  0  0  0  0  0  0  0  0  0  0
  1  2  2  0  0  0  0
  2  3  1  0  0  0  0
  3  4  2  0  0  0  0
  3  5  1  0  0  0  0
  5  6  1  0  0  0  0
  6  7  2  0  0  0  0
  7  8  1  0  0  0  0
  7  9  1  0  0  0  0
  9 10  1  0  0  0  0
  9 11  2  0  0  0  0
 11 12  1  0  0  0  0
 12 13  1  0  0  0  0
 13 14  1  0  0  0  0
 13 15  1  0  0  0  0
 13 16  1  0  0  0  0
 12 17  1  0  0  0  0
 17 18  1  0  0  0  0
 17 19  1  0  0  0  0
 17 20  1  0  0  0  0
 12 20  1  0  0  0  0
 20 21  1  0  0  0  0
 20 22  1  0  0  0  0
 11 23  1  0  0  0  0
 23 24  1  0  0  0  0
 23 25  2  0  0  0  0
  6 25  1  0  0  0  0
 25 26  1  0  0  0  0
  5 27  1  0  0  0  0
 27 28  1  0  0  0  0
 28 29  2  0  0  0  0
 28 30  1  0  0  0  0
 30 31  1  0  0  0  0
 31 32  2  0  0  0  0
 32 33  1  0  0  0  0
 32 34  1  0  0  0  0
 34 35  1  0  0  0  0
 34 36  2  0  0  0  0
 36 37  1  0  0  0  0
 36 38  1  0  0  0  0
 38 39  1  0  0  0  0
 38 40  2  0  0  0  0
 31 40  1  0  0  0  0
 40 41  1  0  0  0  0
 30 42  1  0  0  0  0
 27 43  1  0  0  0  0
 43 44  2  0  0  0  0
 44 45  1  0  0  0  0
 44 46  1  0  0  0  0
 46 47  1  0  0  0  0
 46 48  2  0  0  0  0
 48 49  1  0  0  0  0
 48 50  1  0  0  0  0
 50 51  2  0  0  0  0
 43 51  1  0  0  0  0
 51 52  1  0  0  0  0
 27 53  1  0  0  0  0
  2 54  1  0  0  0  0
  1 55  1  0  0  0  0
  1 56  1  0  0  0  0
M  END
> <Potency>
82.4142683892735

> <pIC50>
4.083997592352883

> <Outcome>
Inactive

> <is_active>
0

$$$$

  Mrv1921 08232120312D          

 47 50  0  0  0  0            999 V2000
    0.3739   -3.7192    0.0000 C   0  0  0  0  0  0  0  0  0  0  0  0
   -0.1781   -3.1062    0.0000 N   0  0  0  0  0  0  0  0  0  0  0  0
    0.0768   -2.3215    0.0000 C   0  0  0  0  0  0  0  0  0  0  0  0
   -0.4752   -1.7084    0.0000 O   0  0  0  0  0  0  0  0  0  0  0  0
    0.8838   -2.1500    0.0000 C   0  0  0  0  0  0  0  0  0  0  0  0
    1.1387   -1.3654    0.0000 N   0  0  0  0  0  0  0  0  0  0  0  0
    0.6538   -0.6979    0.0000 N   0  0  0  0  0  0  0  0  0  0  0  0
    1.1387   -0.0305    0.0000 N   0  0  0  0  0  0  0  0  0  0  0  0
    1.9233   -0.2854    0.0000 C   0  0  0  0  0  0  0  0  0  0  0  0
    2.6378    0.1271    0.0000 C   0  0  0  0  0  0  0  0  0  0  0  0
    3.3523   -0.2854    0.0000 C   0  0  0  0  0  0  0  0  0  0  0  0
    3.3523   -1.1104    0.0000 C   0  0  0  0  0  0  0  0  0  0  0  0
    2.6378   -1.5229    0.0000 C   0  0  0  0  0  0  0  0  0  0  0  0
    2.6378   -2.3479    0.0000 H   0  0  0  0  0  0  0  0  0  0  0  0
    1.9233   -1.1104    0.0000 C   0  0  0  0  0  0  0  0  0  0  0  0
    4.0668   -1.5229    0.0000 H   0  0  0  0  0  0  0  0  0  0  0  0
    4.0668    0.1271    0.0000 H   0  0  0  0  0  0  0  0  0  0  0  0
    2.6378    0.9521    0.0000 H   0  0  0  0  0  0  0  0  0  0  0  0
    1.1019   -2.9456    0.0000 H   0  0  0  0  0  0  0  0  0  0  0  0
    1.6523   -2.4501    0.0000 H   0  0  0  0  0  0  0  0  0  0  0  0
   -0.9851   -3.2777    0.0000 C   0  0  0  0  0  0  0  0  0  0  0  0
   -1.2400   -4.0623    0.0000 C   0  0  0  0  0  0  0  0  0  0  0  0
   -0.6880   -4.6754    0.0000 H   0  0  0  0  0  0  0  0  0  0  0  0
   -2.0470   -4.2338    0.0000 C   0  0  0  0  0  0  0  0  0  0  0  0
   -2.3020   -5.0184    0.0000 H   0  0  0  0  0  0  0  0  0  0  0  0
   -2.5990   -3.6207    0.0000 C   0  0  0  0  0  0  0  0  0  0  0  0
   -3.4060   -3.7923    0.0000 O   0  0  0  0  0  0  0  0  0  0  0  0
   -3.9580   -3.1792    0.0000 C   0  0  0  0  0  0  0  0  0  0  0  0
   -4.7650   -3.3507    0.0000 C   0  0  0  0  0  0  0  0  0  0  0  0
   -5.0200   -4.1353    0.0000 H   0  0  0  0  0  0  0  0  0  0  0  0
   -5.3171   -2.7376    0.0000 C   0  0  0  0  0  0  0  0  0  0  0  0
   -6.1240   -2.9091    0.0000 H   0  0  0  0  0  0  0  0  0  0  0  0
   -5.0621   -1.9530    0.0000 C   0  0  0  0  0  0  0  0  0  0  0  0
   -5.6141   -1.3399    0.0000 C   0  0  0  0  0  0  0  0  0  0  0  0
   -6.1662   -0.7268    0.0000 F   0  0  0  0  0  0  0  0  0  0  0  0
   -5.0011   -0.7878    0.0000 F   0  0  0  0  0  0  0  0  0  0  0  0
   -6.2272   -1.8919    0.0000 F   0  0  0  0  0  0  0  0  0  0  0  0
   -4.2551   -1.7814    0.0000 C   0  0  0  0  0  0  0  0  0  0  0  0
   -4.0002   -0.9968    0.0000 H   0  0  0  0  0  0  0  0  0  0  0  0
   -3.7031   -2.3945    0.0000 N   0  0  0  0  0  0  0  0  0  0  0  0
   -2.3441   -2.8361    0.0000 C   0  0  0  0  0  0  0  0  0  0  0  0
   -2.8961   -2.2230    0.0000 H   0  0  0  0  0  0  0  0  0  0  0  0
   -1.5371   -2.6646    0.0000 C   0  0  0  0  0  0  0  0  0  0  0  0
   -1.2822   -1.8800    0.0000 H   0  0  0  0  0  0  0  0  0  0  0  0
   -0.2392   -4.2713    0.0000 H   0  0  0  0  0  0  0  0  0  0  0  0
    0.9259   -4.3323    0.0000 H   0  0  0  0  0  0  0  0  0  0  0  0
    0.9870   -3.1672    0.0000 H   0  0  0  0  0  0  0  0  0  0  0  0
  1  2  1  0  0  0  0
  2  3  1  0  0  0  0
  3  4  2  0  0  0  0
  3  5  1  0  0  0  0
  5  6  1  0  0  0  0
  6  7  1  0  0  0  0
  7  8  2  0  0  0  0
  8  9  1  0  0  0  0
  9 10  2  0  0  0  0
 10 11  1  0  0  0  0
 11 12  2  0  0  0  0
 12 13  1  0  0  0  0
 13 14  1  0  0  0  0
 13 15  2  0  0  0  0
  6 15  1  0  0  0  0
  9 15  1  0  0  0  0
 12 16  1  0  0  0  0
 11 17  1  0  0  0  0
 10 18  1  0  0  0  0
  5 19  1  0  0  0  0
  5 20  1  0  0  0  0
  2 21  1  0  0  0  0
 21 22  2  0  0  0  0
 22 23  1  0  0  0  0
 22 24  1  0  0  0  0
 24 25  1  0  0  0  0
 24 26  2  0  0  0  0
 26 27  1  0  0  0  0
 27 28  1  0  0  0  0
 28 29  2  0  0  0  0
 29 30  1  0  0  0  0
 29 31  1  0  0  0  0
 31 32  1  0  0  0  0
 31 33  2  0  0  0  0
 33 34  1  0  0  0  0
 34 35  1  0  0  0  0
 34 36  1  0  0  0  0
 34 37  1  0  0  0  0
 33 38  1  0  0  0  0
 38 39  1  0  0  0  0
 38 40  2  0  0  0  0
 28 40  1  0  0  0  0
 26 41  1  0  0  0  0
 41 42  1  0  0  0  0
 41 43  2  0  0  0  0
 21 43  1  0  0  0  0
 43 44  1  0  0  0  0
  1 45  1  0  0  0  0
  1 46  1  0  0  0  0
  1 47  1  0  0  0  0
M  END
> <Potency>
37.8323685211715

> <pIC50>
4.422136468554594

> <Outcome>
Inactive

> <is_active>
0

$$$$

  Mrv1921 08232120312D          

 51 52  0  0  0  0            999 V2000
    0.9059   -1.9520    0.0000 C   0  0  0  0  0  0  0  0  0  0  0  0
    1.7309   -1.9520    0.0000 C   0  0  0  0  0  0  0  0  0  0  0  0
    2.1434   -1.2375    0.0000 C   0  0  0  0  0  0  0  0  0  0  0  0
    1.7309   -0.5230    0.0000 O   0  0  0  0  0  0  0  0  0  0  0  0
    2.9684   -1.2375    0.0000 N   0  0  0  0  0  0  0  0  0  0  0  0
    3.3809   -0.5230    0.0000 C   0  0  0  0  0  0  0  0  0  0  0  0
    2.9684    0.1914    0.0000 C   0  0  0  0  0  0  0  0  0  0  0  0
    2.1434    0.1914    0.0000 H   0  0  0  0  0  0  0  0  0  0  0  0
    3.3809    0.9059    0.0000 C   0  0  0  0  0  0  0  0  0  0  0  0
    2.9684    1.6204    0.0000 H   0  0  0  0  0  0  0  0  0  0  0  0
    4.2059    0.9059    0.0000 C   0  0  0  0  0  0  0  0  0  0  0  0
    4.6184    1.6204    0.0000 C   0  0  0  0  0  0  0  0  0  0  0  0
    5.0309    2.3349    0.0000 C   0  0  0  0  0  0  0  0  0  0  0  0
    5.7454    1.9224    0.0000 H   0  0  0  0  0  0  0  0  0  0  0  0
    5.4434    3.0493    0.0000 H   0  0  0  0  0  0  0  0  0  0  0  0
    4.3164    2.7474    0.0000 H   0  0  0  0  0  0  0  0  0  0  0  0
    3.9039    2.0329    0.0000 C   0  0  0  0  0  0  0  0  0  0  0  0
    3.4017    2.6874    0.0000 H   0  0  0  0  0  0  0  0  0  0  0  0
    3.1071    1.8194    0.0000 H   0  0  0  0  0  0  0  0  0  0  0  0
    3.7963    1.2149    0.0000 H   0  0  0  0  0  0  0  0  0  0  0  0
    5.3329    1.2079    0.0000 C   0  0  0  0  0  0  0  0  0  0  0  0
    4.6784    0.7057    0.0000 H   0  0  0  0  0  0  0  0  0  0  0  0
    5.5464    0.4110    0.0000 H   0  0  0  0  0  0  0  0  0  0  0  0
    6.1508    1.1002    0.0000 H   0  0  0  0  0  0  0  0  0  0  0  0
    4.6184    0.1914    0.0000 C   0  0  0  0  0  0  0  0  0  0  0  0
    5.1109   -0.4704    0.0000 H   0  0  0  0  0  0  0  0  0  0  0  0
    4.2059   -0.5230    0.0000 C   0  0  0  0  0  0  0  0  0  0  0  0
    3.7934   -1.2375    0.0000 H   0  0  0  0  0  0  0  0  0  0  0  0
    3.3809   -1.9520    0.0000 C   0  0  0  0  0  0  0  0  0  0  0  0
    4.2059   -1.9520    0.0000 C   0  0  0  0  0  0  0  0  0  0  0  0
    4.6184   -2.6664    0.0000 O   0  0  0  0  0  0  0  0  0  0  0  0
    4.6184   -1.2375    0.0000 N   0  0  0  0  0  0  0  0  0  0  0  0
    5.4434   -1.2375    0.0000 C   0  0  0  0  0  0  0  0  0  0  0  0
    5.8353   -1.9635    0.0000 H   0  0  0  0  0  0  0  0  0  0  0  0
    6.2671   -1.2848    0.0000 H   0  0  0  0  0  0  0  0  0  0  0  0
    5.9157   -0.5611    0.0000 H   0  0  0  0  0  0  0  0  0  0  0  0
    5.0309   -1.9520    0.0000 H   0  0  0  0  0  0  0  0  0  0  0  0
    2.9684   -2.6664    0.0000 C   0  0  0  0  0  0  0  0  0  0  0  0
    3.3809   -3.3809    0.0000 C   0  0  0  0  0  0  0  0  0  0  0  0
    4.0954   -3.7934    0.0000 H   0  0  0  0  0  0  0  0  0  0  0  0
    2.9684   -4.0954    0.0000 C   0  0  0  0  0  0  0  0  0  0  0  0
    3.3809   -4.8099    0.0000 H   0  0  0  0  0  0  0  0  0  0  0  0
    2.1434   -4.0954    0.0000 C   0  0  0  0  0  0  0  0  0  0  0  0
    1.7309   -4.8099    0.0000 H   0  0  0  0  0  0  0  0  0  0  0  0
    1.7309   -3.3809    0.0000 N   0  0  0  0  0  0  0  0  0  0  0  0
    2.1434   -2.6664    0.0000 C   0  0  0  0  0  0  0  0  0  0  0  0
    1.3184   -2.6664    0.0000 H   0  0  0  0  0  0  0  0  0  0  0  0
    3.7934   -2.6664    0.0000 H   0  0  0  0  0  0  0  0  0  0  0  0
    2.5559   -1.9520    0.0000 H   0  0  0  0  0  0  0  0  0  0  0  0
    0.4934   -1.2375    0.0000 H   0  0  0  0  0  0  0  0  0  0  0  0
    0.4934   -2.6664    0.0000 H   0  0  0  0  0  0  0  0  0  0  0  0
  1  2  2  0  0  0  0
  2  3  1  0  0  0  0
  3  4  2  0  0  0  0
  3  5  1  0  0  0  0
  5  6  1  0  0  0  0
  6  7  2  0  0  0  0
  7  8  1  0  0  0  0
  7  9  1  0  0  0  0
  9 10  1  0  0  0  0
  9 11  2  0  0  0  0
 11 12  1  0  0  0  0
 12 13  1  0  0  0  0
 13 14  1  0  0  0  0
 13 15  1  0  0  0  0
 13 16  1  0  0  0  0
 12 17  1  0  0  0  0
 17 18  1  0  0  0  0
 17 19  1  0  0  0  0
 17 20  1  0  0  0  0
 12 21  1  0  0  0  0
 21 22  1  0  0  0  0
 21 23  1  0  0  0  0
 21 24  1  0  0  0  0
 11 25  1  0  0  0  0
 25 26  1  0  0  0  0
 25 27  2  0  0  0  0
  6 27  1  0  0  0  0
 27 28  1  0  0  0  0
  5 29  1  0  0  0  0
 29 30  1  0  0  0  0
 30 31  2  0  0  0  0
 30 32  1  0  0  0  0
 32 33  1  0  0  0  0
 33 34  1  0  0  0  0
 33 35  1  0  0  0  0
 33 36  1  0  0  0  0
 32 37  1  0  0  0  0
 29 38  1  0  0  0  0
 38 39  2  0  0  0  0
 39 40  1  0  0  0  0
 39 41  1  0  0  0  0
 41 42  1  0  0  0  0
 41 43  2  0  0  0  0
 43 44  1  0  0  0  0
 43 45  1  0  0  0  0
 45 46  2  0  0  0  0
 38 46  1  0  0  0  0
 46 47  1  0  0  0  0
 29 48  1  0  0  0  0
  2 49  1  0  0  0  0
  1 50  1  0  0  0  0
  1 51  1  0  0  0  0
M  END
> <Potency>
35.7085529921464

> <pIC50>
4.4472277482462745

> <Outcome>
Inactive

> <is_active>
0

$$$$

  Mrv1921 08232120312D          

 61 62  0  0  0  0            999 V2000
    0.4381   -1.4453    0.0000 C   0  0  0  0  0  0  0  0  0  0  0  0
    0.6363   -2.2462    0.0000 C   0  0  0  0  0  0  0  0  0  0  0  0
    1.4289   -2.4750    0.0000 C   0  0  0  0  0  0  0  0  0  0  0  0
    2.0234   -1.9030    0.0000 O   0  0  0  0  0  0  0  0  0  0  0  0
    1.6271   -3.2758    0.0000 N   0  0  0  0  0  0  0  0  0  0  0  0
    1.0326   -3.8479    0.0000 C   0  0  0  0  0  0  0  0  0  0  0  0
    1.2308   -4.6487    0.0000 C   0  0  0  0  0  0  0  0  0  0  0  0
    1.8253   -4.0767    0.0000 H   0  0  0  0  0  0  0  0  0  0  0  0
    0.6363   -5.2208    0.0000 C   0  0  0  0  0  0  0  0  0  0  0  0
    0.8345   -6.0216    0.0000 H   0  0  0  0  0  0  0  0  0  0  0  0
   -0.1563   -4.9920    0.0000 C   0  0  0  0  0  0  0  0  0  0  0  0
   -0.7508   -5.5640    0.0000 C   0  0  0  0  0  0  0  0  0  0  0  0
   -1.3453   -6.1360    0.0000 C   0  0  0  0  0  0  0  0  0  0  0  0
   -1.9173   -5.5415    0.0000 H   0  0  0  0  0  0  0  0  0  0  0  0
   -1.9398   -6.7081    0.0000 H   0  0  0  0  0  0  0  0  0  0  0  0
   -0.7732   -6.7305    0.0000 H   0  0  0  0  0  0  0  0  0  0  0  0
   -0.1788   -6.1585    0.0000 C   0  0  0  0  0  0  0  0  0  0  0  0
    0.1222   -6.9266    0.0000 H   0  0  0  0  0  0  0  0  0  0  0  0
    0.6461   -6.1743    0.0000 H   0  0  0  0  0  0  0  0  0  0  0  0
    0.1515   -5.4025    0.0000 H   0  0  0  0  0  0  0  0  0  0  0  0
   -1.3228   -4.9695    0.0000 C   0  0  0  0  0  0  0  0  0  0  0  0
   -0.5547   -4.6685    0.0000 H   0  0  0  0  0  0  0  0  0  0  0  0
   -1.3070   -4.1447    0.0000 H   0  0  0  0  0  0  0  0  0  0  0  0
   -2.0788   -4.6392    0.0000 H   0  0  0  0  0  0  0  0  0  0  0  0
   -0.3545   -4.1911    0.0000 C   0  0  0  0  0  0  0  0  0  0  0  0
   -0.6441   -3.4186    0.0000 H   0  0  0  0  0  0  0  0  0  0  0  0
    0.2400   -3.6191    0.0000 C   0  0  0  0  0  0  0  0  0  0  0  0
    0.8345   -3.0470    0.0000 H   0  0  0  0  0  0  0  0  0  0  0  0
    2.4197   -3.5047    0.0000 C   0  0  0  0  0  0  0  0  0  0  0  0
    3.0142   -2.9326    0.0000 C   0  0  0  0  0  0  0  0  0  0  0  0
    2.8161   -2.1318    0.0000 O   0  0  0  0  0  0  0  0  0  0  0  0
    3.8068   -3.1614    0.0000 N   0  0  0  0  0  0  0  0  0  0  0  0
    4.4013   -2.5894    0.0000 C   0  0  0  0  0  0  0  0  0  0  0  0
    5.1940   -2.8182    0.0000 C   0  0  0  0  0  0  0  0  0  0  0  0
    5.7884   -2.2462    0.0000 C   0  0  0  0  0  0  0  0  0  0  0  0
    6.5811   -2.4750    0.0000 S   0  0  0  0  0  0  0  0  0  0  0  0
    7.1755   -1.9030    0.0000 C   0  0  0  0  0  0  0  0  0  0  0  0
    7.7476   -2.4974    0.0000 H   0  0  0  0  0  0  0  0  0  0  0  0
    7.7700   -1.3309    0.0000 H   0  0  0  0  0  0  0  0  0  0  0  0
    6.6035   -1.3085    0.0000 H   0  0  0  0  0  0  0  0  0  0  0  0
    5.9708   -1.4416    0.0000 H   0  0  0  0  0  0  0  0  0  0  0  0
    5.2519   -1.6195    0.0000 H   0  0  0  0  0  0  0  0  0  0  0  0
    5.0116   -3.6228    0.0000 H   0  0  0  0  0  0  0  0  0  0  0  0
    5.7305   -3.4450    0.0000 H   0  0  0  0  0  0  0  0  0  0  0  0
    4.5837   -1.7848    0.0000 H   0  0  0  0  0  0  0  0  0  0  0  0
    3.8648   -1.9627    0.0000 H   0  0  0  0  0  0  0  0  0  0  0  0
    4.0050   -3.9623    0.0000 H   0  0  0  0  0  0  0  0  0  0  0  0
    2.6179   -4.3055    0.0000 C   0  0  0  0  0  0  0  0  0  0  0  0
    3.4105   -4.5343    0.0000 C   0  0  0  0  0  0  0  0  0  0  0  0
    3.2124   -3.7335    0.0000 H   0  0  0  0  0  0  0  0  0  0  0  0
    3.6087   -5.3352    0.0000 C   0  0  0  0  0  0  0  0  0  0  0  0
    4.4013   -5.5640    0.0000 H   0  0  0  0  0  0  0  0  0  0  0  0
    3.0142   -5.9072    0.0000 C   0  0  0  0  0  0  0  0  0  0  0  0
    3.2124   -6.7081    0.0000 H   0  0  0  0  0  0  0  0  0  0  0  0
    2.2216   -5.6784    0.0000 N   0  0  0  0  0  0  0  0  0  0  0  0
    2.0234   -4.8775    0.0000 C   0  0  0  0  0  0  0  0  0  0  0  0
    2.8161   -5.1064    0.0000 H   0  0  0  0  0  0  0  0  0  0  0  0
    2.2216   -2.7038    0.0000 H   0  0  0  0  0  0  0  0  0  0  0  0
    0.0418   -2.8182    0.0000 H   0  0  0  0  0  0  0  0  0  0  0  0
    1.0326   -0.8733    0.0000 H   0  0  0  0  0  0  0  0  0  0  0  0
   -0.3545   -1.2165    0.0000 H   0  0  0  0  0  0  0  0  0  0  0  0
  1  2  2  0  0  0  0
  2  3  1  0  0  0  0
  3  4  2  0  0  0  0
  3  5  1  0  0  0  0
  5  6  1  0  0  0  0
  6  7  2  0  0  0  0
  7  8  1  0  0  0  0
  7  9  1  0  0  0  0
  9 10  1  0  0  0  0
  9 11  2  0  0  0  0
 11 12  1  0  0  0  0
 12 13  1  0  0  0  0
 13 14  1  0  0  0  0
 13 15  1  0  0  0  0
 13 16  1  0  0  0  0
 12 17  1  0  0  0  0
 17 18  1  0  0  0  0
 17 19  1  0  0  0  0
 17 20  1  0  0  0  0
 12 21  1  0  0  0  0
 21 22  1  0  0  0  0
 21 23  1  0  0  0  0
 21 24  1  0  0  0  0
 11 25  1  0  0  0  0
 25 26  1  0  0  0  0
 25 27  2  0  0  0  0
  6 27  1  0  0  0  0
 27 28  1  0  0  0  0
  5 29  1  0  0  0  0
 29 30  1  0  0  0  0
 30 31  2  0  0  0  0
 30 32  1  0  0  0  0
 32 33  1  0  0  0  0
 33 34  1  0  0  0  0
 34 35  1  0  0  0  0
 35 36  1  0  0  0  0
 36 37  1  0  0  0  0
 37 38  1  0  0  0  0
 37 39  1  0  0  0  0
 37 40  1  0  0  0  0
 35 41  1  0  0  0  0
 35 42  1  0  0  0  0
 34 43  1  0  0  0  0
 34 44  1  0  0  0  0
 33 45  1  0  0  0  0
 33 46  1  0  0  0  0
 32 47  1  0  0  0  0
 29 48  1  0  0  0  0
 48 49  2  0  0  0  0
 49 50  1  0  0  0  0
 49 51  1  0  0  0  0
 51 52  1  0  0  0  0
 51 53  2  0  0  0  0
 53 54  1  0  0  0  0
 53 55  1  0  0  0  0
 55 56  2  0  0  0  0
 48 56  1  0  0  0  0
 56 57  1  0  0  0  0
 29 58  1  0  0  0  0
  2 59  1  0  0  0  0
  1 60  1  0  0  0  0
  1 61  1  0  0  0  0
M  END
> <Potency>
25.4680750268351

> <pIC50>
4.594003879410815

> <Outcome>
Inactive

> <is_active>
0

$$$$

  Mrv1921 08232120312D          

 58 59  0  0  0  0            999 V2000
    0.4444   -3.6671    0.0000 C   0  0  0  0  0  0  0  0  0  0  0  0
    0.7145   -2.8875    0.0000 C   0  0  0  0  0  0  0  0  0  0  0  0
    0.1744   -2.2639    0.0000 C   0  0  0  0  0  0  0  0  0  0  0  0
   -0.6358   -2.4198    0.0000 O   0  0  0  0  0  0  0  0  0  0  0  0
    0.4444   -1.4843    0.0000 N   0  0  0  0  0  0  0  0  0  0  0  0
   -0.0957   -0.8607    0.0000 C   0  0  0  0  0  0  0  0  0  0  0  0
   -0.9058   -1.0166    0.0000 C   0  0  0  0  0  0  0  0  0  0  0  0
   -1.1758   -1.7961    0.0000 H   0  0  0  0  0  0  0  0  0  0  0  0
   -1.4459   -0.3929    0.0000 C   0  0  0  0  0  0  0  0  0  0  0  0
   -2.2560   -0.5488    0.0000 H   0  0  0  0  0  0  0  0  0  0  0  0
   -1.1758    0.3866    0.0000 C   0  0  0  0  0  0  0  0  0  0  0  0
   -1.7159    1.0103    0.0000 C   0  0  0  0  0  0  0  0  0  0  0  0
   -2.2560    1.6339    0.0000 C   0  0  0  0  0  0  0  0  0  0  0  0
   -1.6324    2.1740    0.0000 H   0  0  0  0  0  0  0  0  0  0  0  0
   -2.7961    2.2575    0.0000 H   0  0  0  0  0  0  0  0  0  0  0  0
   -2.8797    1.0938    0.0000 H   0  0  0  0  0  0  0  0  0  0  0  0
   -2.3396    0.4702    0.0000 C   0  0  0  0  0  0  0  0  0  0  0  0
   -3.1224    0.2098    0.0000 H   0  0  0  0  0  0  0  0  0  0  0  0
   -2.3987   -0.3527    0.0000 H   0  0  0  0  0  0  0  0  0  0  0  0
   -1.6019    0.1007    0.0000 H   0  0  0  0  0  0  0  0  0  0  0  0
   -1.0923    1.5503    0.0000 C   0  0  0  0  0  0  0  0  0  0  0  0
   -0.8320    0.7675    0.0000 H   0  0  0  0  0  0  0  0  0  0  0  0
   -0.2694    1.4913    0.0000 H   0  0  0  0  0  0  0  0  0  0  0  0
   -0.7228    2.2880    0.0000 H   0  0  0  0  0  0  0  0  0  0  0  0
   -0.3657    0.5425    0.0000 C   0  0  0  0  0  0  0  0  0  0  0  0
    0.4209    0.7913    0.0000 H   0  0  0  0  0  0  0  0  0  0  0  0
    0.1744   -0.0811    0.0000 C   0  0  0  0  0  0  0  0  0  0  0  0
    0.7145   -0.7048    0.0000 H   0  0  0  0  0  0  0  0  0  0  0  0
    1.2546   -1.3284    0.0000 C   0  0  0  0  0  0  0  0  0  0  0  0
    1.7946   -1.9520    0.0000 C   0  0  0  0  0  0  0  0  0  0  0  0
    1.5246   -2.7316    0.0000 O   0  0  0  0  0  0  0  0  0  0  0  0
    2.6048   -1.7961    0.0000 N   0  0  0  0  0  0  0  0  0  0  0  0
    3.1449   -2.4198    0.0000 C   0  0  0  0  0  0  0  0  0  0  0  0
    3.9550   -2.2639    0.0000 C   0  0  0  0  0  0  0  0  0  0  0  0
    4.4951   -2.8875    0.0000 S   0  0  0  0  0  0  0  0  0  0  0  0
    5.3052   -2.7316    0.0000 C   0  0  0  0  0  0  0  0  0  0  0  0
    5.4611   -3.5417    0.0000 H   0  0  0  0  0  0  0  0  0  0  0  0
    6.1154   -2.5757    0.0000 H   0  0  0  0  0  0  0  0  0  0  0  0
    5.1493   -1.9215    0.0000 H   0  0  0  0  0  0  0  0  0  0  0  0
    4.5462   -1.6884    0.0000 H   0  0  0  0  0  0  0  0  0  0  0  0
    3.8465   -1.4460    0.0000 H   0  0  0  0  0  0  0  0  0  0  0  0
    2.5537   -2.9952    0.0000 H   0  0  0  0  0  0  0  0  0  0  0  0
    3.2534   -3.2376    0.0000 H   0  0  0  0  0  0  0  0  0  0  0  0
    3.2284   -1.2560    0.0000 H   0  0  0  0  0  0  0  0  0  0  0  0
    1.5246   -0.5488    0.0000 C   0  0  0  0  0  0  0  0  0  0  0  0
    0.9845    0.0748    0.0000 C   0  0  0  0  0  0  0  0  0  0  0  0
    1.7946    0.2307    0.0000 H   0  0  0  0  0  0  0  0  0  0  0  0
    1.2546    0.8543    0.0000 C   0  0  0  0  0  0  0  0  0  0  0  0
    1.1453    1.6721    0.0000 H   0  0  0  0  0  0  0  0  0  0  0  0
    2.0647    1.0103    0.0000 C   0  0  0  0  0  0  0  0  0  0  0  0
    2.3347    1.7898    0.0000 H   0  0  0  0  0  0  0  0  0  0  0  0
    2.6048    0.3866    0.0000 N   0  0  0  0  0  0  0  0  0  0  0  0
    2.3347   -0.3929    0.0000 C   0  0  0  0  0  0  0  0  0  0  0  0
    3.1143   -0.6630    0.0000 H   0  0  0  0  0  0  0  0  0  0  0  0
    2.0647   -1.1725    0.0000 H   0  0  0  0  0  0  0  0  0  0  0  0
    0.9845   -2.1079    0.0000 H   0  0  0  0  0  0  0  0  0  0  0  0
   -0.3657   -3.8230    0.0000 H   0  0  0  0  0  0  0  0  0  0  0  0
    0.9845   -4.2907    0.0000 H   0  0  0  0  0  0  0  0  0  0  0  0
  1  2  2  0  0  0  0
  2  3  1  0  0  0  0
  3  4  2  0  0  0  0
  3  5  1  0  0  0  0
  5  6  1  0  0  0  0
  6  7  2  0  0  0  0
  7  8  1  0  0  0  0
  7  9  1  0  0  0  0
  9 10  1  0  0  0  0
  9 11  2  0  0  0  0
 11 12  1  0  0  0  0
 12 13  1  0  0  0  0
 13 14  1  0  0  0  0
 13 15  1  0  0  0  0
 13 16  1  0  0  0  0
 12 17  1  0  0  0  0
 17 18  1  0  0  0  0
 17 19  1  0  0  0  0
 17 20  1  0  0  0  0
 12 21  1  0  0  0  0
 21 22  1  0  0  0  0
 21 23  1  0  0  0  0
 21 24  1  0  0  0  0
 11 25  1  0  0  0  0
 25 26  1  0  0  0  0
 25 27  2  0  0  0  0
  6 27  1  0  0  0  0
 27 28  1  0  0  0  0
  5 29  1  0  0  0  0
 29 30  1  0  0  0  0
 30 31  2  0  0  0  0
 30 32  1  0  0  0  0
 32 33  1  0  0  0  0
 33 34  1  0  0  0  0
 34 35  1  0  0  0  0
 35 36  1  0  0  0  0
 36 37  1  0  0  0  0
 36 38  1  0  0  0  0
 36 39  1  0  0  0  0
 34 40  1  0  0  0  0
 34 41  1  0  0  0  0
 33 42  1  0  0  0  0
 33 43  1  0  0  0  0
 32 44  1  0  0  0  0
 29 45  1  0  0  0  0
 45 46  2  0  0  0  0
 46 47  1  0  0  0  0
 46 48  1  0  0  0  0
 48 49  1  0  0  0  0
 48 50  2  0  0  0  0
 50 51  1  0  0  0  0
 50 52  1  0  0  0  0
 52 53  2  0  0  0  0
 45 53  1  0  0  0  0
 53 54  1  0  0  0  0
 29 55  1  0  0  0  0
  2 56  1  0  0  0  0
  1 57  1  0  0  0  0
  1 58  1  0  0  0  0
M  END
> <Potency>
20.1619451628661

> <pIC50>
4.695467570800557

> <Outcome>
Inactive

> <is_active>
0

$$$$

  Mrv1921 08232120312D          

 61 63  0  0  0  0            999 V2000
    1.8734   -2.1079    0.0000 C   0  0  0  0  0  0  0  0  0  0  0  0
    2.1434   -2.8875    0.0000 C   0  0  0  0  0  0  0  0  0  0  0  0
    2.9535   -3.0434    0.0000 C   0  0  0  0  0  0  0  0  0  0  0  0
    3.4936   -2.4198    0.0000 O   0  0  0  0  0  0  0  0  0  0  0  0
    3.2236   -3.8230    0.0000 N   0  0  0  0  0  0  0  0  0  0  0  0
    2.6835   -4.4466    0.0000 C   0  0  0  0  0  0  0  0  0  0  0  0
    2.9535   -5.2262    0.0000 C   0  0  0  0  0  0  0  0  0  0  0  0
    3.4936   -4.6025    0.0000 H   0  0  0  0  0  0  0  0  0  0  0  0
    2.4135   -5.8498    0.0000 C   0  0  0  0  0  0  0  0  0  0  0  0
    2.6835   -6.6293    0.0000 H   0  0  0  0  0  0  0  0  0  0  0  0
    1.6033   -5.6939    0.0000 C   0  0  0  0  0  0  0  0  0  0  0  0
    1.0632   -6.3175    0.0000 C   0  0  0  0  0  0  0  0  0  0  0  0
    0.5231   -6.9412    0.0000 C   0  0  0  0  0  0  0  0  0  0  0  0
   -0.1005   -6.4011    0.0000 H   0  0  0  0  0  0  0  0  0  0  0  0
   -0.0169   -7.5648    0.0000 H   0  0  0  0  0  0  0  0  0  0  0  0
    1.1468   -7.4813    0.0000 H   0  0  0  0  0  0  0  0  0  0  0  0
    1.6869   -6.8576    0.0000 C   0  0  0  0  0  0  0  0  0  0  0  0
    2.0564   -7.5953    0.0000 H   0  0  0  0  0  0  0  0  0  0  0  0
    2.5098   -6.7985    0.0000 H   0  0  0  0  0  0  0  0  0  0  0  0
    1.9472   -6.0748    0.0000 H   0  0  0  0  0  0  0  0  0  0  0  0
    0.4396   -5.7774    0.0000 C   0  0  0  0  0  0  0  0  0  0  0  0
    1.1772   -5.4080    0.0000 H   0  0  0  0  0  0  0  0  0  0  0  0
    0.3805   -4.9546    0.0000 H   0  0  0  0  0  0  0  0  0  0  0  0
   -0.3433   -5.5171    0.0000 H   0  0  0  0  0  0  0  0  0  0  0  0
    1.3333   -4.9143    0.0000 C   0  0  0  0  0  0  0  0  0  0  0  0
    0.9747   -4.1713    0.0000 H   0  0  0  0  0  0  0  0  0  0  0  0
    1.8734   -4.2907    0.0000 C   0  0  0  0  0  0  0  0  0  0  0  0
    2.4135   -3.6671    0.0000 H   0  0  0  0  0  0  0  0  0  0  0  0
    4.0337   -3.9789    0.0000 C   0  0  0  0  0  0  0  0  0  0  0  0
    4.5738   -3.3552    0.0000 C   0  0  0  0  0  0  0  0  0  0  0  0
    4.3038   -2.5757    0.0000 O   0  0  0  0  0  0  0  0  0  0  0  0
    5.3839   -3.5111    0.0000 N   0  0  0  0  0  0  0  0  0  0  0  0
    5.9240   -2.8875    0.0000 C   0  0  0  0  0  0  0  0  0  0  0  0
    6.7342   -3.0434    0.0000 C   0  0  0  0  0  0  0  0  0  0  0  0
    7.2743   -2.4198    0.0000 C   0  0  0  0  0  0  0  0  0  0  0  0
    7.0042   -1.6402    0.0000 H   0  0  0  0  0  0  0  0  0  0  0  0
    8.0844   -2.5757    0.0000 C   0  0  0  0  0  0  0  0  0  0  0  0
    8.6245   -1.9520    0.0000 H   0  0  0  0  0  0  0  0  0  0  0  0
    8.3544   -3.3552    0.0000 C   0  0  0  0  0  0  0  0  0  0  0  0
    9.1646   -3.5111    0.0000 F   0  0  0  0  0  0  0  0  0  0  0  0
    7.8144   -3.9789    0.0000 C   0  0  0  0  0  0  0  0  0  0  0  0
    8.0844   -4.7584    0.0000 H   0  0  0  0  0  0  0  0  0  0  0  0
    7.0042   -3.8230    0.0000 C   0  0  0  0  0  0  0  0  0  0  0  0
    6.4641   -4.4466    0.0000 H   0  0  0  0  0  0  0  0  0  0  0  0
    6.0326   -2.0697    0.0000 H   0  0  0  0  0  0  0  0  0  0  0  0
    5.3329   -2.3121    0.0000 H   0  0  0  0  0  0  0  0  0  0  0  0
    5.6540   -4.2907    0.0000 H   0  0  0  0  0  0  0  0  0  0  0  0
    4.3038   -4.7584    0.0000 C   0  0  0  0  0  0  0  0  0  0  0  0
    5.1139   -4.9143    0.0000 C   0  0  0  0  0  0  0  0  0  0  0  0
    4.8439   -4.1348    0.0000 H   0  0  0  0  0  0  0  0  0  0  0  0
    5.3839   -5.6939    0.0000 C   0  0  0  0  0  0  0  0  0  0  0  0
    6.1941   -5.8498    0.0000 H   0  0  0  0  0  0  0  0  0  0  0  0
    4.8439   -6.3175    0.0000 C   0  0  0  0  0  0  0  0  0  0  0  0
    5.1139   -7.0971    0.0000 H   0  0  0  0  0  0  0  0  0  0  0  0
    4.0337   -6.1616    0.0000 N   0  0  0  0  0  0  0  0  0  0  0  0
    3.7637   -5.3821    0.0000 C   0  0  0  0  0  0  0  0  0  0  0  0
    4.5738   -5.5380    0.0000 H   0  0  0  0  0  0  0  0  0  0  0  0
    3.7637   -3.1993    0.0000 H   0  0  0  0  0  0  0  0  0  0  0  0
    1.6033   -3.5111    0.0000 H   0  0  0  0  0  0  0  0  0  0  0  0
    2.4135   -1.4843    0.0000 H   0  0  0  0  0  0  0  0  0  0  0  0
    1.0632   -1.9520    0.0000 H   0  0  0  0  0  0  0  0  0  0  0  0
  1  2  2  0  0  0  0
  2  3  1  0  0  0  0
  3  4  2  0  0  0  0
  3  5  1  0  0  0  0
  5  6  1  0  0  0  0
  6  7  2  0  0  0  0
  7  8  1  0  0  0  0
  7  9  1  0  0  0  0
  9 10  1  0  0  0  0
  9 11  2  0  0  0  0
 11 12  1  0  0  0  0
 12 13  1  0  0  0  0
 13 14  1  0  0  0  0
 13 15  1  0  0  0  0
 13 16  1  0  0  0  0
 12 17  1  0  0  0  0
 17 18  1  0  0  0  0
 17 19  1  0  0  0  0
 17 20  1  0  0  0  0
 12 21  1  0  0  0  0
 21 22  1  0  0  0  0
 21 23  1  0  0  0  0
 21 24  1  0  0  0  0
 11 25  1  0  0  0  0
 25 26  1  0  0  0  0
 25 27  2  0  0  0  0
  6 27  1  0  0  0  0
 27 28  1  0  0  0  0
  5 29  1  0  0  0  0
 29 30  1  0  0  0  0
 30 31  2  0  0  0  0
 30 32  1  0  0  0  0
 32 33  1  0  0  0  0
 33 34  1  0  0  0  0
 34 35  2  0  0  0  0
 35 36  1  0  0  0  0
 35 37  1  0  0  0  0
 37 38  1  0  0  0  0
 37 39  2  0  0  0  0
 39 40  1  0  0  0  0
 39 41  1  0  0  0  0
 41 42  1  0  0  0  0
 41 43  2  0  0  0  0
 34 43  1  0  0  0  0
 43 44  1  0  0  0  0
 33 45  1  0  0  0  0
 33 46  1  0  0  0  0
 32 47  1  0  0  0  0
 29 48  1  0  0  0  0
 48 49  2  0  0  0  0
 49 50  1  0  0  0  0
 49 51  1  0  0  0  0
 51 52  1  0  0  0  0
 51 53  2  0  0  0  0
 53 54  1  0  0  0  0
 53 55  1  0  0  0  0
 55 56  2  0  0  0  0
 48 56  1  0  0  0  0
 56 57  1  0  0  0  0
 29 58  1  0  0  0  0
  2 59  1  0  0  0  0
  1 60  1  0  0  0  0
  1 61  1  0  0  0  0
M  END
> <Potency>
23.3347750379225

> <pIC50>
4.631996381633757

> <Outcome>
Inactive

> <is_active>
0

$$$$

  Mrv1921 08232120312D          

 58 59  0  0  0  0            999 V2000
    0.4444   -3.6671    0.0000 C   0  0  0  0  0  0  0  0  0  0  0  0
    0.7145   -2.8875    0.0000 C   0  0  0  0  0  0  0  0  0  0  0  0
    0.1744   -2.2639    0.0000 C   0  0  0  0  0  0  0  0  0  0  0  0
   -0.6358   -2.4198    0.0000 O   0  0  0  0  0  0  0  0  0  0  0  0
    0.4444   -1.4843    0.0000 N   0  0  0  0  0  0  0  0  0  0  0  0
   -0.0957   -0.8607    0.0000 C   0  0  0  0  0  0  0  0  0  0  0  0
   -0.9058   -1.0166    0.0000 C   0  0  0  0  0  0  0  0  0  0  0  0
   -1.1758   -1.7961    0.0000 H   0  0  0  0  0  0  0  0  0  0  0  0
   -1.4459   -0.3929    0.0000 C   0  0  0  0  0  0  0  0  0  0  0  0
   -2.2560   -0.5488    0.0000 H   0  0  0  0  0  0  0  0  0  0  0  0
   -1.1758    0.3866    0.0000 C   0  0  0  0  0  0  0  0  0  0  0  0
   -1.7159    1.0103    0.0000 C   0  0  0  0  0  0  0  0  0  0  0  0
   -2.2560    1.6339    0.0000 C   0  0  0  0  0  0  0  0  0  0  0  0
   -1.6324    2.1740    0.0000 H   0  0  0  0  0  0  0  0  0  0  0  0
   -2.7961    2.2575    0.0000 H   0  0  0  0  0  0  0  0  0  0  0  0
   -2.8797    1.0938    0.0000 H   0  0  0  0  0  0  0  0  0  0  0  0
   -2.3396    0.4702    0.0000 C   0  0  0  0  0  0  0  0  0  0  0  0
   -3.1224    0.2098    0.0000 H   0  0  0  0  0  0  0  0  0  0  0  0
   -2.3987   -0.3527    0.0000 H   0  0  0  0  0  0  0  0  0  0  0  0
   -1.6019    0.1007    0.0000 H   0  0  0  0  0  0  0  0  0  0  0  0
   -1.0923    1.5503    0.0000 C   0  0  0  0  0  0  0  0  0  0  0  0
   -0.8320    0.7675    0.0000 H   0  0  0  0  0  0  0  0  0  0  0  0
   -0.2694    1.4913    0.0000 H   0  0  0  0  0  0  0  0  0  0  0  0
   -0.7228    2.2880    0.0000 H   0  0  0  0  0  0  0  0  0  0  0  0
   -0.3657    0.5425    0.0000 C   0  0  0  0  0  0  0  0  0  0  0  0
    0.4209    0.7913    0.0000 H   0  0  0  0  0  0  0  0  0  0  0  0
    0.1744   -0.0811    0.0000 C   0  0  0  0  0  0  0  0  0  0  0  0
    0.7145   -0.7048    0.0000 H   0  0  0  0  0  0  0  0  0  0  0  0
    1.2546   -1.3284    0.0000 C   0  0  0  0  0  0  0  0  0  0  0  0
    1.7946   -1.9520    0.0000 C   0  0  0  0  0  0  0  0  0  0  0  0
    1.5246   -2.7316    0.0000 O   0  0  0  0  0  0  0  0  0  0  0  0
    2.6048   -1.7961    0.0000 N   0  0  0  0  0  0  0  0  0  0  0  0
    3.1449   -2.4198    0.0000 C   0  0  0  0  0  0  0  0  0  0  0  0
    3.9550   -2.2639    0.0000 C   0  0  0  0  0  0  0  0  0  0  0  0
    4.4951   -2.8875    0.0000 O   0  0  0  0  0  0  0  0  0  0  0  0
    5.3052   -2.7316    0.0000 C   0  0  0  0  0  0  0  0  0  0  0  0
    5.4611   -3.5417    0.0000 H   0  0  0  0  0  0  0  0  0  0  0  0
    6.1154   -2.5757    0.0000 H   0  0  0  0  0  0  0  0  0  0  0  0
    5.1493   -1.9215    0.0000 H   0  0  0  0  0  0  0  0  0  0  0  0
    4.5462   -1.6884    0.0000 H   0  0  0  0  0  0  0  0  0  0  0  0
    3.8465   -1.4460    0.0000 H   0  0  0  0  0  0  0  0  0  0  0  0
    2.5537   -2.9952    0.0000 H   0  0  0  0  0  0  0  0  0  0  0  0
    3.2534   -3.2376    0.0000 H   0  0  0  0  0  0  0  0  0  0  0  0
    3.2284   -1.2560    0.0000 H   0  0  0  0  0  0  0  0  0  0  0  0
    1.5246   -0.5488    0.0000 C   0  0  0  0  0  0  0  0  0  0  0  0
    0.9845    0.0748    0.0000 C   0  0  0  0  0  0  0  0  0  0  0  0
    1.7946    0.2307    0.0000 H   0  0  0  0  0  0  0  0  0  0  0  0
    1.2546    0.8543    0.0000 C   0  0  0  0  0  0  0  0  0  0  0  0
    1.1453    1.6721    0.0000 H   0  0  0  0  0  0  0  0  0  0  0  0
    2.0647    1.0103    0.0000 C   0  0  0  0  0  0  0  0  0  0  0  0
    2.3347    1.7898    0.0000 H   0  0  0  0  0  0  0  0  0  0  0  0
    2.6048    0.3866    0.0000 N   0  0  0  0  0  0  0  0  0  0  0  0
    2.3347   -0.3929    0.0000 C   0  0  0  0  0  0  0  0  0  0  0  0
    3.1143   -0.6630    0.0000 H   0  0  0  0  0  0  0  0  0  0  0  0
    2.0647   -1.1725    0.0000 H   0  0  0  0  0  0  0  0  0  0  0  0
    0.9845   -2.1079    0.0000 H   0  0  0  0  0  0  0  0  0  0  0  0
   -0.3657   -3.8230    0.0000 H   0  0  0  0  0  0  0  0  0  0  0  0
    0.9845   -4.2907    0.0000 H   0  0  0  0  0  0  0  0  0  0  0  0
  1  2  2  0  0  0  0
  2  3  1  0  0  0  0
  3  4  2  0  0  0  0
  3  5  1  0  0  0  0
  5  6  1  0  0  0  0
  6  7  2  0  0  0  0
  7  8  1  0  0  0  0
  7  9  1  0  0  0  0
  9 10  1  0  0  0  0
  9 11  2  0  0  0  0
 11 12  1  0  0  0  0
 12 13  1  0  0  0  0
 13 14  1  0  0  0  0
 13 15  1  0  0  0  0
 13 16  1  0  0  0  0
 12 17  1  0  0  0  0
 17 18  1  0  0  0  0
 17 19  1  0  0  0  0
 17 20  1  0  0  0  0
 12 21  1  0  0  0  0
 21 22  1  0  0  0  0
 21 23  1  0  0  0  0
 21 24  1  0  0  0  0
 11 25  1  0  0  0  0
 25 26  1  0  0  0  0
 25 27  2  0  0  0  0
  6 27  1  0  0  0  0
 27 28  1  0  0  0  0
  5 29  1  0  0  0  0
 29 30  1  0  0  0  0
 30 31  2  0  0  0  0
 30 32  1  0  0  0  0
 32 33  1  0  0  0  0
 33 34  1  0  0  0  0
 34 35  1  0  0  0  0
 35 36  1  0  0  0  0
 36 37  1  0  0  0  0
 36 38  1  0  0  0  0
 36 39  1  0  0  0  0
 34 40  1  0  0  0  0
 34 41  1  0  0  0  0
 33 42  1  0  0  0  0
 33 43  1  0  0  0  0
 32 44  1  0  0  0  0
 29 45  1  0  0  0  0
 45 46  2  0  0  0  0
 46 47  1  0  0  0  0
 46 48  1  0  0  0  0
 48 49  1  0  0  0  0
 48 50  2  0  0  0  0
 50 51  1  0  0  0  0
 50 52  1  0  0  0  0
 52 53  2  0  0  0  0
 45 53  1  0  0  0  0
 53 54  1  0  0  0  0
 29 55  1  0  0  0  0
  2 56  1  0  0  0  0
  1 57  1  0  0  0  0
  1 58  1  0  0  0  0
M  END
> <Potency>
55.7779893422194

> <pIC50>
4.253537145023672

> <Outcome>
Inactive

> <is_active>
0

$$$$

  Mrv1921 08232120312D          

 60 62  0  0  0  0            999 V2000
    1.8734   -2.1079    0.0000 C   0  0  0  0  0  0  0  0  0  0  0  0
    2.1434   -2.8875    0.0000 C   0  0  0  0  0  0  0  0  0  0  0  0
    2.9535   -3.0434    0.0000 C   0  0  0  0  0  0  0  0  0  0  0  0
    3.4936   -2.4198    0.0000 O   0  0  0  0  0  0  0  0  0  0  0  0
    3.2236   -3.8230    0.0000 N   0  0  0  0  0  0  0  0  0  0  0  0
    2.6835   -4.4466    0.0000 C   0  0  0  0  0  0  0  0  0  0  0  0
    2.9535   -5.2262    0.0000 C   0  0  0  0  0  0  0  0  0  0  0  0
    3.4936   -4.6025    0.0000 H   0  0  0  0  0  0  0  0  0  0  0  0
    2.4135   -5.8498    0.0000 C   0  0  0  0  0  0  0  0  0  0  0  0
    2.6835   -6.6293    0.0000 H   0  0  0  0  0  0  0  0  0  0  0  0
    1.6033   -5.6939    0.0000 C   0  0  0  0  0  0  0  0  0  0  0  0
    1.0632   -6.3175    0.0000 C   0  0  0  0  0  0  0  0  0  0  0  0
    0.5231   -6.9412    0.0000 C   0  0  0  0  0  0  0  0  0  0  0  0
   -0.1005   -6.4011    0.0000 H   0  0  0  0  0  0  0  0  0  0  0  0
   -0.0169   -7.5648    0.0000 H   0  0  0  0  0  0  0  0  0  0  0  0
    1.1468   -7.4813    0.0000 H   0  0  0  0  0  0  0  0  0  0  0  0
    1.6869   -6.8576    0.0000 C   0  0  0  0  0  0  0  0  0  0  0  0
    2.0564   -7.5953    0.0000 H   0  0  0  0  0  0  0  0  0  0  0  0
    2.5098   -6.7985    0.0000 H   0  0  0  0  0  0  0  0  0  0  0  0
    1.9472   -6.0748    0.0000 H   0  0  0  0  0  0  0  0  0  0  0  0
    0.4396   -5.7774    0.0000 C   0  0  0  0  0  0  0  0  0  0  0  0
    1.1772   -5.4080    0.0000 H   0  0  0  0  0  0  0  0  0  0  0  0
    0.3805   -4.9546    0.0000 H   0  0  0  0  0  0  0  0  0  0  0  0
   -0.3433   -5.5171    0.0000 H   0  0  0  0  0  0  0  0  0  0  0  0
    1.3333   -4.9143    0.0000 C   0  0  0  0  0  0  0  0  0  0  0  0
    0.9747   -4.1713    0.0000 H   0  0  0  0  0  0  0  0  0  0  0  0
    1.8734   -4.2907    0.0000 C   0  0  0  0  0  0  0  0  0  0  0  0
    2.4135   -3.6671    0.0000 H   0  0  0  0  0  0  0  0  0  0  0  0
    4.0337   -3.9789    0.0000 C   0  0  0  0  0  0  0  0  0  0  0  0
    4.5738   -3.3552    0.0000 C   0  0  0  0  0  0  0  0  0  0  0  0
    4.3038   -2.5757    0.0000 O   0  0  0  0  0  0  0  0  0  0  0  0
    5.3839   -3.5111    0.0000 N   0  0  0  0  0  0  0  0  0  0  0  0
    5.9240   -2.8875    0.0000 C   0  0  0  0  0  0  0  0  0  0  0  0
    6.7342   -3.0434    0.0000 C   0  0  0  0  0  0  0  0  0  0  0  0
    7.2743   -2.4198    0.0000 C   0  0  0  0  0  0  0  0  0  0  0  0
    7.0042   -1.6402    0.0000 H   0  0  0  0  0  0  0  0  0  0  0  0
    8.0844   -2.5757    0.0000 C   0  0  0  0  0  0  0  0  0  0  0  0
    8.6245   -1.9520    0.0000 H   0  0  0  0  0  0  0  0  0  0  0  0
    8.3544   -3.3552    0.0000 C   0  0  0  0  0  0  0  0  0  0  0  0
    9.1646   -3.5111    0.0000 H   0  0  0  0  0  0  0  0  0  0  0  0
    7.8144   -3.9789    0.0000 N   0  0  0  0  0  0  0  0  0  0  0  0
    7.0042   -3.8230    0.0000 C   0  0  0  0  0  0  0  0  0  0  0  0
    6.4641   -4.4466    0.0000 H   0  0  0  0  0  0  0  0  0  0  0  0
    6.0326   -2.0697    0.0000 H   0  0  0  0  0  0  0  0  0  0  0  0
    5.3329   -2.3121    0.0000 H   0  0  0  0  0  0  0  0  0  0  0  0
    5.6540   -4.2907    0.0000 H   0  0  0  0  0  0  0  0  0  0  0  0
    4.3038   -4.7584    0.0000 C   0  0  0  0  0  0  0  0  0  0  0  0
    5.1139   -4.9143    0.0000 C   0  0  0  0  0  0  0  0  0  0  0  0
    4.8439   -4.1348    0.0000 H   0  0  0  0  0  0  0  0  0  0  0  0
    5.3839   -5.6939    0.0000 C   0  0  0  0  0  0  0  0  0  0  0  0
    6.1941   -5.8498    0.0000 H   0  0  0  0  0  0  0  0  0  0  0  0
    4.8439   -6.3175    0.0000 C   0  0  0  0  0  0  0  0  0  0  0  0
    5.1139   -7.0971    0.0000 H   0  0  0  0  0  0  0  0  0  0  0  0
    4.0337   -6.1616    0.0000 N   0  0  0  0  0  0  0  0  0  0  0  0
    3.7637   -5.3821    0.0000 C   0  0  0  0  0  0  0  0  0  0  0  0
    4.5738   -5.5380    0.0000 H   0  0  0  0  0  0  0  0  0  0  0  0
    3.7637   -3.1993    0.0000 H   0  0  0  0  0  0  0  0  0  0  0  0
    1.6033   -3.5111    0.0000 H   0  0  0  0  0  0  0  0  0  0  0  0
    2.4135   -1.4843    0.0000 H   0  0  0  0  0  0  0  0  0  0  0  0
    1.0632   -1.9520    0.0000 H   0  0  0  0  0  0  0  0  0  0  0  0
  1  2  2  0  0  0  0
  2  3  1  0  0  0  0
  3  4  2  0  0  0  0
  3  5  1  0  0  0  0
  5  6  1  0  0  0  0
  6  7  2  0  0  0  0
  7  8  1  0  0  0  0
  7  9  1  0  0  0  0
  9 10  1  0  0  0  0
  9 11  2  0  0  0  0
 11 12  1  0  0  0  0
 12 13  1  0  0  0  0
 13 14  1  0  0  0  0
 13 15  1  0  0  0  0
 13 16  1  0  0  0  0
 12 17  1  0  0  0  0
 17 18  1  0  0  0  0
 17 19  1  0  0  0  0
 17 20  1  0  0  0  0
 12 21  1  0  0  0  0
 21 22  1  0  0  0  0
 21 23  1  0  0  0  0
 21 24  1  0  0  0  0
 11 25  1  0  0  0  0
 25 26  1  0  0  0  0
 25 27  2  0  0  0  0
  6 27  1  0  0  0  0
 27 28  1  0  0  0  0
  5 29  1  0  0  0  0
 29 30  1  0  0  0  0
 30 31  2  0  0  0  0
 30 32  1  0  0  0  0
 32 33  1  0  0  0  0
 33 34  1  0  0  0  0
 34 35  2  0  0  0  0
 35 36  1  0  0  0  0
 35 37  1  0  0  0  0
 37 38  1  0  0  0  0
 37 39  2  0  0  0  0
 39 40  1  0  0  0  0
 39 41  1  0  0  0  0
 41 42  2  0  0  0  0
 34 42  1  0  0  0  0
 42 43  1  0  0  0  0
 33 44  1  0  0  0  0
 33 45  1  0  0  0  0
 32 46  1  0  0  0  0
 29 47  1  0  0  0  0
 47 48  2  0  0  0  0
 48 49  1  0  0  0  0
 48 50  1  0  0  0  0
 50 51  1  0  0  0  0
 50 52  2  0  0  0  0
 52 53  1  0  0  0  0
 52 54  1  0  0  0  0
 54 55  2  0  0  0  0
 47 55  1  0  0  0  0
 55 56  1  0  0  0  0
 29 57  1  0  0  0  0
  2 58  1  0  0  0  0
  1 59  1  0  0  0  0
  1 60  1  0  0  0  0
M  END
> <Potency>
49.8615755502403

> <pIC50>
4.302234002567814

> <Outcome>
Inactive

> <is_active>
0

$$$$

  Mrv1921 08232120312D          

 54 55  0  0  0  0            999 V2000
    0.3020   -3.6020    0.0000 C   0  0  0  0  0  0  0  0  0  0  0  0
    0.7145   -2.8875    0.0000 C   0  0  0  0  0  0  0  0  0  0  0  0
    0.3020   -2.1730    0.0000 C   0  0  0  0  0  0  0  0  0  0  0  0
   -0.5230   -2.1730    0.0000 O   0  0  0  0  0  0  0  0  0  0  0  0
    0.7145   -1.4586    0.0000 N   0  0  0  0  0  0  0  0  0  0  0  0
    0.3020   -0.7441    0.0000 C   0  0  0  0  0  0  0  0  0  0  0  0
   -0.5230   -0.7441    0.0000 C   0  0  0  0  0  0  0  0  0  0  0  0
   -0.9355   -1.4586    0.0000 H   0  0  0  0  0  0  0  0  0  0  0  0
   -0.9355   -0.0296    0.0000 C   0  0  0  0  0  0  0  0  0  0  0  0
   -1.7605   -0.0296    0.0000 H   0  0  0  0  0  0  0  0  0  0  0  0
   -0.5230    0.6849    0.0000 C   0  0  0  0  0  0  0  0  0  0  0  0
   -0.9355    1.3993    0.0000 C   0  0  0  0  0  0  0  0  0  0  0  0
   -1.3480    2.1138    0.0000 C   0  0  0  0  0  0  0  0  0  0  0  0
   -0.6336    2.5263    0.0000 H   0  0  0  0  0  0  0  0  0  0  0  0
   -1.7605    2.8283    0.0000 H   0  0  0  0  0  0  0  0  0  0  0  0
   -2.0625    1.7013    0.0000 H   0  0  0  0  0  0  0  0  0  0  0  0
   -1.6500    0.9868    0.0000 C   0  0  0  0  0  0  0  0  0  0  0  0
   -2.4679    0.8791    0.0000 H   0  0  0  0  0  0  0  0  0  0  0  0
   -1.8635    0.1899    0.0000 H   0  0  0  0  0  0  0  0  0  0  0  0
   -0.9955    0.4846    0.0000 H   0  0  0  0  0  0  0  0  0  0  0  0
   -0.2211    1.8118    0.0000 C   0  0  0  0  0  0  0  0  0  0  0  0
   -0.1134    0.9939    0.0000 H   0  0  0  0  0  0  0  0  0  0  0  0
    0.5758    1.5983    0.0000 H   0  0  0  0  0  0  0  0  0  0  0  0
    0.2812    2.4663    0.0000 H   0  0  0  0  0  0  0  0  0  0  0  0
    0.3020    0.6849    0.0000 C   0  0  0  0  0  0  0  0  0  0  0  0
    1.1214    0.7805    0.0000 H   0  0  0  0  0  0  0  0  0  0  0  0
    0.7145   -0.0296    0.0000 C   0  0  0  0  0  0  0  0  0  0  0  0
    1.1270   -0.7441    0.0000 H   0  0  0  0  0  0  0  0  0  0  0  0
    1.5395   -1.4586    0.0000 C   0  0  0  0  0  0  0  0  0  0  0  0
    1.9520   -2.1730    0.0000 C   0  0  0  0  0  0  0  0  0  0  0  0
    1.5395   -2.8875    0.0000 O   0  0  0  0  0  0  0  0  0  0  0  0
    2.7770   -2.1730    0.0000 N   0  0  0  0  0  0  0  0  0  0  0  0
    3.1895   -2.8875    0.0000 C   0  0  0  0  0  0  0  0  0  0  0  0
    4.0145   -2.8875    0.0000 C   0  0  0  0  0  0  0  0  0  0  0  0
    4.0145   -3.7125    0.0000 H   0  0  0  0  0  0  0  0  0  0  0  0
    4.8395   -2.8875    0.0000 H   0  0  0  0  0  0  0  0  0  0  0  0
    4.0145   -2.0625    0.0000 H   0  0  0  0  0  0  0  0  0  0  0  0
    2.5002   -3.3408    0.0000 H   0  0  0  0  0  0  0  0  0  0  0  0
    3.1415   -3.7111    0.0000 H   0  0  0  0  0  0  0  0  0  0  0  0
    3.4914   -1.7605    0.0000 H   0  0  0  0  0  0  0  0  0  0  0  0
    1.9520   -0.7441    0.0000 C   0  0  0  0  0  0  0  0  0  0  0  0
    1.5395   -0.0296    0.0000 C   0  0  0  0  0  0  0  0  0  0  0  0
    2.3645   -0.0296    0.0000 H   0  0  0  0  0  0  0  0  0  0  0  0
    1.9520    0.6849    0.0000 C   0  0  0  0  0  0  0  0  0  0  0  0
    1.9992    1.5085    0.0000 H   0  0  0  0  0  0  0  0  0  0  0  0
    2.7770    0.6849    0.0000 C   0  0  0  0  0  0  0  0  0  0  0  0
    3.1895    1.3993    0.0000 H   0  0  0  0  0  0  0  0  0  0  0  0
    3.1895   -0.0296    0.0000 N   0  0  0  0  0  0  0  0  0  0  0  0
    2.7770   -0.7441    0.0000 C   0  0  0  0  0  0  0  0  0  0  0  0
    3.4914   -1.1566    0.0000 H   0  0  0  0  0  0  0  0  0  0  0  0
    2.3645   -1.4586    0.0000 H   0  0  0  0  0  0  0  0  0  0  0  0
    1.1270   -2.1730    0.0000 H   0  0  0  0  0  0  0  0  0  0  0  0
   -0.5230   -3.6020    0.0000 H   0  0  0  0  0  0  0  0  0  0  0  0
    0.7145   -4.3164    0.0000 H   0  0  0  0  0  0  0  0  0  0  0  0
  1  2  2  0  0  0  0
  2  3  1  0  0  0  0
  3  4  2  0  0  0  0
  3  5  1  0  0  0  0
  5  6  1  0  0  0  0
  6  7  2  0  0  0  0
  7  8  1  0  0  0  0
  7  9  1  0  0  0  0
  9 10  1  0  0  0  0
  9 11  2  0  0  0  0
 11 12  1  0  0  0  0
 12 13  1  0  0  0  0
 13 14  1  0  0  0  0
 13 15  1  0  0  0  0
 13 16  1  0  0  0  0
 12 17  1  0  0  0  0
 17 18  1  0  0  0  0
 17 19  1  0  0  0  0
 17 20  1  0  0  0  0
 12 21  1  0  0  0  0
 21 22  1  0  0  0  0
 21 23  1  0  0  0  0
 21 24  1  0  0  0  0
 11 25  1  0  0  0  0
 25 26  1  0  0  0  0
 25 27  2  0  0  0  0
  6 27  1  0  0  0  0
 27 28  1  0  0  0  0
  5 29  1  0  0  0  0
 29 30  1  0  0  0  0
 30 31  2  0  0  0  0
 30 32  1  0  0  0  0
 32 33  1  0  0  0  0
 33 34  1  0  0  0  0
 34 35  1  0  0  0  0
 34 36  1  0  0  0  0
 34 37  1  0  0  0  0
 33 38  1  0  0  0  0
 33 39  1  0  0  0  0
 32 40  1  0  0  0  0
 29 41  1  0  0  0  0
 41 42  2  0  0  0  0
 42 43  1  0  0  0  0
 42 44  1  0  0  0  0
 44 45  1  0  0  0  0
 44 46  2  0  0  0  0
 46 47  1  0  0  0  0
 46 48  1  0  0  0  0
 48 49  2  0  0  0  0
 41 49  1  0  0  0  0
 49 50  1  0  0  0  0
 29 51  1  0  0  0  0
  2 52  1  0  0  0  0
  1 53  1  0  0  0  0
  1 54  1  0  0  0  0
M  END
> <Potency>
45.490007175617

> <pIC50>
4.342083994664205

> <Outcome>
Inactive

> <is_active>
0

$$$$

  Mrv1921 08232120312D          

 62 64  0  0  0  0            999 V2000
    1.8734   -2.1079    0.0000 C   0  0  0  0  0  0  0  0  0  0  0  0
    2.1434   -2.8875    0.0000 C   0  0  0  0  0  0  0  0  0  0  0  0
    2.9535   -3.0434    0.0000 C   0  0  0  0  0  0  0  0  0  0  0  0
    3.4936   -2.4198    0.0000 O   0  0  0  0  0  0  0  0  0  0  0  0
    3.2236   -3.8230    0.0000 N   0  0  0  0  0  0  0  0  0  0  0  0
    2.6835   -4.4466    0.0000 C   0  0  0  0  0  0  0  0  0  0  0  0
    2.9535   -5.2262    0.0000 C   0  0  0  0  0  0  0  0  0  0  0  0
    3.4936   -4.6025    0.0000 H   0  0  0  0  0  0  0  0  0  0  0  0
    2.4135   -5.8498    0.0000 C   0  0  0  0  0  0  0  0  0  0  0  0
    2.6835   -6.6293    0.0000 H   0  0  0  0  0  0  0  0  0  0  0  0
    1.6033   -5.6939    0.0000 C   0  0  0  0  0  0  0  0  0  0  0  0
    1.0632   -6.3175    0.0000 C   0  0  0  0  0  0  0  0  0  0  0  0
    0.5231   -6.9412    0.0000 C   0  0  0  0  0  0  0  0  0  0  0  0
   -0.1005   -6.4011    0.0000 H   0  0  0  0  0  0  0  0  0  0  0  0
   -0.0169   -7.5648    0.0000 H   0  0  0  0  0  0  0  0  0  0  0  0
    1.1468   -7.4813    0.0000 H   0  0  0  0  0  0  0  0  0  0  0  0
    1.6869   -6.8576    0.0000 C   0  0  0  0  0  0  0  0  0  0  0  0
    2.0564   -7.5953    0.0000 H   0  0  0  0  0  0  0  0  0  0  0  0
    2.5098   -6.7985    0.0000 H   0  0  0  0  0  0  0  0  0  0  0  0
    1.9472   -6.0748    0.0000 H   0  0  0  0  0  0  0  0  0  0  0  0
    0.4396   -5.7774    0.0000 C   0  0  0  0  0  0  0  0  0  0  0  0
    1.1772   -5.4080    0.0000 H   0  0  0  0  0  0  0  0  0  0  0  0
    0.3805   -4.9546    0.0000 H   0  0  0  0  0  0  0  0  0  0  0  0
   -0.3433   -5.5171    0.0000 H   0  0  0  0  0  0  0  0  0  0  0  0
    1.3333   -4.9143    0.0000 C   0  0  0  0  0  0  0  0  0  0  0  0
    0.9747   -4.1713    0.0000 H   0  0  0  0  0  0  0  0  0  0  0  0
    1.8734   -4.2907    0.0000 C   0  0  0  0  0  0  0  0  0  0  0  0
    2.4135   -3.6671    0.0000 H   0  0  0  0  0  0  0  0  0  0  0  0
    4.0337   -3.9789    0.0000 C   0  0  0  0  0  0  0  0  0  0  0  0
    4.5738   -3.3552    0.0000 C   0  0  0  0  0  0  0  0  0  0  0  0
    4.3038   -2.5757    0.0000 O   0  0  0  0  0  0  0  0  0  0  0  0
    5.3839   -3.5111    0.0000 N   0  0  0  0  0  0  0  0  0  0  0  0
    5.9240   -2.8875    0.0000 C   0  0  0  0  0  0  0  0  0  0  0  0
    6.7342   -3.0434    0.0000 C   0  0  0  0  0  0  0  0  0  0  0  0
    7.3365   -2.4796    0.0000 C   0  0  0  0  0  0  0  0  0  0  0  0
    7.6307   -1.7089    0.0000 H   0  0  0  0  0  0  0  0  0  0  0  0
    6.8620   -1.8047    0.0000 H   0  0  0  0  0  0  0  0  0  0  0  0
    8.0588   -2.8783    0.0000 C   0  0  0  0  0  0  0  0  0  0  0  0
    8.8827   -2.9199    0.0000 H   0  0  0  0  0  0  0  0  0  0  0  0
    8.5541   -2.2185    0.0000 H   0  0  0  0  0  0  0  0  0  0  0  0
    7.9029   -3.6884    0.0000 C   0  0  0  0  0  0  0  0  0  0  0  0
    8.1179   -4.4849    0.0000 H   0  0  0  0  0  0  0  0  0  0  0  0
    8.6834   -3.9555    0.0000 H   0  0  0  0  0  0  0  0  0  0  0  0
    7.0842   -3.7905    0.0000 O   0  0  0  0  0  0  0  0  0  0  0  0
    6.2275   -3.6945    0.0000 H   0  0  0  0  0  0  0  0  0  0  0  0
    6.0326   -2.0697    0.0000 H   0  0  0  0  0  0  0  0  0  0  0  0
    5.3329   -2.3121    0.0000 H   0  0  0  0  0  0  0  0  0  0  0  0
    5.6540   -4.2907    0.0000 H   0  0  0  0  0  0  0  0  0  0  0  0
    4.3038   -4.7584    0.0000 C   0  0  0  0  0  0  0  0  0  0  0  0
    5.1139   -4.9143    0.0000 C   0  0  0  0  0  0  0  0  0  0  0  0
    4.8439   -4.1348    0.0000 H   0  0  0  0  0  0  0  0  0  0  0  0
    5.3839   -5.6939    0.0000 C   0  0  0  0  0  0  0  0  0  0  0  0
    6.1941   -5.8498    0.0000 H   0  0  0  0  0  0  0  0  0  0  0  0
    4.8439   -6.3175    0.0000 C   0  0  0  0  0  0  0  0  0  0  0  0
    5.1139   -7.0971    0.0000 H   0  0  0  0  0  0  0  0  0  0  0  0
    4.0337   -6.1616    0.0000 N   0  0  0  0  0  0  0  0  0  0  0  0
    3.7637   -5.3821    0.0000 C   0  0  0  0  0  0  0  0  0  0  0  0
    4.5738   -5.5380    0.0000 H   0  0  0  0  0  0  0  0  0  0  0  0
    3.7637   -3.1993    0.0000 H   0  0  0  0  0  0  0  0  0  0  0  0
    1.6033   -3.5111    0.0000 H   0  0  0  0  0  0  0  0  0  0  0  0
    2.4135   -1.4843    0.0000 H   0  0  0  0  0  0  0  0  0  0  0  0
    1.0632   -1.9520    0.0000 H   0  0  0  0  0  0  0  0  0  0  0  0
  1  2  2  0  0  0  0
  2  3  1  0  0  0  0
  3  4  2  0  0  0  0
  3  5  1  0  0  0  0
  5  6  1  0  0  0  0
  6  7  2  0  0  0  0
  7  8  1  0  0  0  0
  7  9  1  0  0  0  0
  9 10  1  0  0  0  0
  9 11  2  0  0  0  0
 11 12  1  0  0  0  0
 12 13  1  0  0  0  0
 13 14  1  0  0  0  0
 13 15  1  0  0  0  0
 13 16  1  0  0  0  0
 12 17  1  0  0  0  0
 17 18  1  0  0  0  0
 17 19  1  0  0  0  0
 17 20  1  0  0  0  0
 12 21  1  0  0  0  0
 21 22  1  0  0  0  0
 21 23  1  0  0  0  0
 21 24  1  0  0  0  0
 11 25  1  0  0  0  0
 25 26  1  0  0  0  0
 25 27  2  0  0  0  0
  6 27  1  0  0  0  0
 27 28  1  0  0  0  0
  5 29  1  0  0  0  0
 29 30  1  0  0  0  0
 30 31  2  0  0  0  0
 30 32  1  0  0  0  0
 32 33  1  0  0  0  0
 33 34  1  0  0  0  0
 34 35  1  0  0  0  0
 35 36  1  0  0  0  0
 35 37  1  0  0  0  0
 35 38  1  0  0  0  0
 38 39  1  0  0  0  0
 38 40  1  0  0  0  0
 38 41  1  0  0  0  0
 41 42  1  0  0  0  0
 41 43  1  0  0  0  0
 41 44  1  0  0  0  0
 34 44  1  0  0  0  0
 34 45  1  0  0  0  0
 33 46  1  0  0  0  0
 33 47  1  0  0  0  0
 32 48  1  0  0  0  0
 29 49  1  0  0  0  0
 49 50  2  0  0  0  0
 50 51  1  0  0  0  0
 50 52  1  0  0  0  0
 52 53  1  0  0  0  0
 52 54  2  0  0  0  0
 54 55  1  0  0  0  0
 54 56  1  0  0  0  0
 56 57  2  0  0  0  0
 49 57  1  0  0  0  0
 57 58  1  0  0  0  0
 29 59  1  0  0  0  0
  2 60  1  0  0  0  0
  1 61  1  0  0  0  0
  1 62  1  0  0  0  0
M  END
> <Potency>
90.5004515688197

> <pIC50>
4.0433492537963724

> <Outcome>
Inactive

> <is_active>
0

$$$$

  Mrv1921 08232120312D          

 61 63  0  0  0  0            999 V2000
    1.8734   -2.1079    0.0000 C   0  0  0  0  0  0  0  0  0  0  0  0
    2.1434   -2.8875    0.0000 C   0  0  0  0  0  0  0  0  0  0  0  0
    2.9535   -3.0434    0.0000 C   0  0  0  0  0  0  0  0  0  0  0  0
    3.4936   -2.4198    0.0000 O   0  0  0  0  0  0  0  0  0  0  0  0
    3.2236   -3.8230    0.0000 N   0  0  0  0  0  0  0  0  0  0  0  0
    2.6835   -4.4466    0.0000 C   0  0  0  0  0  0  0  0  0  0  0  0
    2.9535   -5.2262    0.0000 C   0  0  0  0  0  0  0  0  0  0  0  0
    3.4936   -4.6025    0.0000 H   0  0  0  0  0  0  0  0  0  0  0  0
    2.4135   -5.8498    0.0000 C   0  0  0  0  0  0  0  0  0  0  0  0
    2.6835   -6.6293    0.0000 H   0  0  0  0  0  0  0  0  0  0  0  0
    1.6033   -5.6939    0.0000 C   0  0  0  0  0  0  0  0  0  0  0  0
    1.0632   -6.3175    0.0000 C   0  0  0  0  0  0  0  0  0  0  0  0
    0.5231   -6.9412    0.0000 C   0  0  0  0  0  0  0  0  0  0  0  0
   -0.1005   -6.4011    0.0000 H   0  0  0  0  0  0  0  0  0  0  0  0
   -0.0169   -7.5648    0.0000 H   0  0  0  0  0  0  0  0  0  0  0  0
    1.1468   -7.4813    0.0000 H   0  0  0  0  0  0  0  0  0  0  0  0
    1.6869   -6.8576    0.0000 C   0  0  0  0  0  0  0  0  0  0  0  0
    2.0564   -7.5953    0.0000 H   0  0  0  0  0  0  0  0  0  0  0  0
    2.5098   -6.7985    0.0000 H   0  0  0  0  0  0  0  0  0  0  0  0
    1.9472   -6.0748    0.0000 H   0  0  0  0  0  0  0  0  0  0  0  0
    0.4396   -5.7774    0.0000 C   0  0  0  0  0  0  0  0  0  0  0  0
    1.1772   -5.4080    0.0000 H   0  0  0  0  0  0  0  0  0  0  0  0
    0.3805   -4.9546    0.0000 H   0  0  0  0  0  0  0  0  0  0  0  0
   -0.3433   -5.5171    0.0000 H   0  0  0  0  0  0  0  0  0  0  0  0
    1.3333   -4.9143    0.0000 C   0  0  0  0  0  0  0  0  0  0  0  0
    0.9747   -4.1713    0.0000 H   0  0  0  0  0  0  0  0  0  0  0  0
    1.8734   -4.2907    0.0000 C   0  0  0  0  0  0  0  0  0  0  0  0
    2.4135   -3.6671    0.0000 H   0  0  0  0  0  0  0  0  0  0  0  0
    4.0337   -3.9789    0.0000 C   0  0  0  0  0  0  0  0  0  0  0  0
    4.5738   -3.3552    0.0000 C   0  0  0  0  0  0  0  0  0  0  0  0
    4.3038   -2.5757    0.0000 O   0  0  0  0  0  0  0  0  0  0  0  0
    5.3839   -3.5111    0.0000 N   0  0  0  0  0  0  0  0  0  0  0  0
    5.9240   -2.8875    0.0000 C   0  0  0  0  0  0  0  0  0  0  0  0
    6.7342   -3.0434    0.0000 C   0  0  0  0  0  0  0  0  0  0  0  0
    7.2743   -2.4198    0.0000 C   0  0  0  0  0  0  0  0  0  0  0  0
    7.0042   -1.6402    0.0000 H   0  0  0  0  0  0  0  0  0  0  0  0
    8.0844   -2.5757    0.0000 C   0  0  0  0  0  0  0  0  0  0  0  0
    8.6245   -1.9520    0.0000 H   0  0  0  0  0  0  0  0  0  0  0  0
    8.3544   -3.3552    0.0000 C   0  0  0  0  0  0  0  0  0  0  0  0
    9.1646   -3.5111    0.0000 H   0  0  0  0  0  0  0  0  0  0  0  0
    7.8144   -3.9789    0.0000 C   0  0  0  0  0  0  0  0  0  0  0  0
    8.0844   -4.7584    0.0000 H   0  0  0  0  0  0  0  0  0  0  0  0
    7.0042   -3.8230    0.0000 C   0  0  0  0  0  0  0  0  0  0  0  0
    6.4641   -4.4466    0.0000 H   0  0  0  0  0  0  0  0  0  0  0  0
    6.0326   -2.0697    0.0000 H   0  0  0  0  0  0  0  0  0  0  0  0
    5.3329   -2.3121    0.0000 H   0  0  0  0  0  0  0  0  0  0  0  0
    5.6540   -4.2907    0.0000 H   0  0  0  0  0  0  0  0  0  0  0  0
    4.3038   -4.7584    0.0000 C   0  0  0  0  0  0  0  0  0  0  0  0
    5.1139   -4.9143    0.0000 C   0  0  0  0  0  0  0  0  0  0  0  0
    4.8439   -4.1348    0.0000 H   0  0  0  0  0  0  0  0  0  0  0  0
    5.3839   -5.6939    0.0000 C   0  0  0  0  0  0  0  0  0  0  0  0
    6.1941   -5.8498    0.0000 H   0  0  0  0  0  0  0  0  0  0  0  0
    4.8439   -6.3175    0.0000 C   0  0  0  0  0  0  0  0  0  0  0  0
    5.1139   -7.0971    0.0000 H   0  0  0  0  0  0  0  0  0  0  0  0
    4.0337   -6.1616    0.0000 N   0  0  0  0  0  0  0  0  0  0  0  0
    3.7637   -5.3821    0.0000 C   0  0  0  0  0  0  0  0  0  0  0  0
    4.5738   -5.5380    0.0000 H   0  0  0  0  0  0  0  0  0  0  0  0
    3.7637   -3.1993    0.0000 H   0  0  0  0  0  0  0  0  0  0  0  0
    1.6033   -3.5111    0.0000 H   0  0  0  0  0  0  0  0  0  0  0  0
    2.4135   -1.4843    0.0000 H   0  0  0  0  0  0  0  0  0  0  0  0
    1.0632   -1.9520    0.0000 H   0  0  0  0  0  0  0  0  0  0  0  0
  1  2  2  0  0  0  0
  2  3  1  0  0  0  0
  3  4  2  0  0  0  0
  3  5  1  0  0  0  0
  5  6  1  0  0  0  0
  6  7  2  0  0  0  0
  7  8  1  0  0  0  0
  7  9  1  0  0  0  0
  9 10  1  0  0  0  0
  9 11  2  0  0  0  0
 11 12  1  0  0  0  0
 12 13  1  0  0  0  0
 13 14  1  0  0  0  0
 13 15  1  0  0  0  0
 13 16  1  0  0  0  0
 12 17  1  0  0  0  0
 17 18  1  0  0  0  0
 17 19  1  0  0  0  0
 17 20  1  0  0  0  0
 12 21  1  0  0  0  0
 21 22  1  0  0  0  0
 21 23  1  0  0  0  0
 21 24  1  0  0  0  0
 11 25  1  0  0  0  0
 25 26  1  0  0  0  0
 25 27  2  0  0  0  0
  6 27  1  0  0  0  0
 27 28  1  0  0  0  0
  5 29  1  0  0  0  0
 29 30  1  0  0  0  0
 30 31  2  0  0  0  0
 30 32  1  0  0  0  0
 32 33  1  0  0  0  0
 33 34  1  0  0  0  0
 34 35  2  0  0  0  0
 35 36  1  0  0  0  0
 35 37  1  0  0  0  0
 37 38  1  0  0  0  0
 37 39  2  0  0  0  0
 39 40  1  0  0  0  0
 39 41  1  0  0  0  0
 41 42  1  0  0  0  0
 41 43  2  0  0  0  0
 34 43  1  0  0  0  0
 43 44  1  0  0  0  0
 33 45  1  0  0  0  0
 33 46  1  0  0  0  0
 32 47  1  0  0  0  0
 29 48  1  0  0  0  0
 48 49  2  0  0  0  0
 49 50  1  0  0  0  0
 49 51  1  0  0  0  0
 51 52  1  0  0  0  0
 51 53  2  0  0  0  0
 53 54  1  0  0  0  0
 53 55  1  0  0  0  0
 55 56  2  0  0  0  0
 48 56  1  0  0  0  0
 56 57  1  0  0  0  0
 29 58  1  0  0  0  0
  2 59  1  0  0  0  0
  1 60  1  0  0  0  0
  1 61  1  0  0  0  0
M  END
> <Potency>
33.3240661657904

> <pIC50>
4.477242011898398

> <Outcome>
Inactive

> <is_active>
0

$$$$

  Mrv1921 08232120312D          

 61 64  0  0  0  0            999 V2000
   -2.6664   -1.7605    0.0000 C   0  0  0  0  0  0  0  0  0  0  0  0
   -2.2539   -2.4750    0.0000 C   0  0  0  0  0  0  0  0  0  0  0  0
   -1.4289   -2.4750    0.0000 C   0  0  0  0  0  0  0  0  0  0  0  0
   -1.0164   -1.7605    0.0000 O   0  0  0  0  0  0  0  0  0  0  0  0
   -1.0164   -3.1895    0.0000 N   0  0  0  0  0  0  0  0  0  0  0  0
   -1.4289   -3.9039    0.0000 C   0  0  0  0  0  0  0  0  0  0  0  0
   -1.0164   -4.6184    0.0000 C   0  0  0  0  0  0  0  0  0  0  0  0
   -0.6039   -3.9039    0.0000 H   0  0  0  0  0  0  0  0  0  0  0  0
   -1.4289   -5.3329    0.0000 C   0  0  0  0  0  0  0  0  0  0  0  0
   -1.0164   -6.0474    0.0000 H   0  0  0  0  0  0  0  0  0  0  0  0
   -2.2539   -5.3329    0.0000 C   0  0  0  0  0  0  0  0  0  0  0  0
   -2.6664   -6.0474    0.0000 C   0  0  0  0  0  0  0  0  0  0  0  0
   -3.0789   -6.7618    0.0000 C   0  0  0  0  0  0  0  0  0  0  0  0
   -3.7934   -6.3493    0.0000 H   0  0  0  0  0  0  0  0  0  0  0  0
   -3.4914   -7.4763    0.0000 H   0  0  0  0  0  0  0  0  0  0  0  0
   -2.3645   -7.1743    0.0000 H   0  0  0  0  0  0  0  0  0  0  0  0
   -1.9520   -6.4599    0.0000 C   0  0  0  0  0  0  0  0  0  0  0  0
   -1.4497   -7.1144    0.0000 H   0  0  0  0  0  0  0  0  0  0  0  0
   -1.1551   -6.2463    0.0000 H   0  0  0  0  0  0  0  0  0  0  0  0
   -1.8443   -5.6419    0.0000 H   0  0  0  0  0  0  0  0  0  0  0  0
   -3.3809   -5.6349    0.0000 C   0  0  0  0  0  0  0  0  0  0  0  0
   -2.7264   -5.1326    0.0000 H   0  0  0  0  0  0  0  0  0  0  0  0
   -3.5944   -4.8380    0.0000 H   0  0  0  0  0  0  0  0  0  0  0  0
   -4.1989   -5.5272    0.0000 H   0  0  0  0  0  0  0  0  0  0  0  0
   -2.6664   -4.6184    0.0000 C   0  0  0  0  0  0  0  0  0  0  0  0
   -3.1590   -3.9566    0.0000 H   0  0  0  0  0  0  0  0  0  0  0  0
   -2.2539   -3.9039    0.0000 C   0  0  0  0  0  0  0  0  0  0  0  0
   -1.8414   -3.1895    0.0000 H   0  0  0  0  0  0  0  0  0  0  0  0
   -0.1914   -3.1895    0.0000 C   0  0  0  0  0  0  0  0  0  0  0  0
    0.2211   -2.4750    0.0000 C   0  0  0  0  0  0  0  0  0  0  0  0
   -0.1914   -1.7605    0.0000 O   0  0  0  0  0  0  0  0  0  0  0  0
    1.0461   -2.4750    0.0000 N   0  0  0  0  0  0  0  0  0  0  0  0
    1.4586   -1.7605    0.0000 C   0  0  0  0  0  0  0  0  0  0  0  0
    1.0461   -1.0461    0.0000 C   0  0  0  0  0  0  0  0  0  0  0  0
    0.2211   -1.0461    0.0000 H   0  0  0  0  0  0  0  0  0  0  0  0
    1.4586   -0.3316    0.0000 C   0  0  0  0  0  0  0  0  0  0  0  0
    1.0461    0.3829    0.0000 H   0  0  0  0  0  0  0  0  0  0  0  0
    2.2836   -0.3316    0.0000 C   0  0  0  0  0  0  0  0  0  0  0  0
    2.6961   -1.0461    0.0000 C   0  0  0  0  0  0  0  0  0  0  0  0
    3.5030   -0.8745    0.0000 O   0  0  0  0  0  0  0  0  0  0  0  0
    3.5893   -0.0541    0.0000 C   0  0  0  0  0  0  0  0  0  0  0  0
    2.8356    0.2815    0.0000 O   0  0  0  0  0  0  0  0  0  0  0  0
    4.4138   -0.0253    0.0000 H   0  0  0  0  0  0  0  0  0  0  0  0
    4.0264    0.6456    0.0000 H   0  0  0  0  0  0  0  0  0  0  0  0
    2.2836   -1.7605    0.0000 C   0  0  0  0  0  0  0  0  0  0  0  0
    2.6961   -2.4750    0.0000 H   0  0  0  0  0  0  0  0  0  0  0  0
    1.4586   -3.1895    0.0000 H   0  0  0  0  0  0  0  0  0  0  0  0
    0.2211   -3.9039    0.0000 C   0  0  0  0  0  0  0  0  0  0  0  0
    1.0461   -3.9039    0.0000 C   0  0  0  0  0  0  0  0  0  0  0  0
    0.6336   -3.1895    0.0000 H   0  0  0  0  0  0  0  0  0  0  0  0
    1.4586   -4.6184    0.0000 C   0  0  0  0  0  0  0  0  0  0  0  0
    2.2836   -4.6184    0.0000 H   0  0  0  0  0  0  0  0  0  0  0  0
    1.0461   -5.3329    0.0000 C   0  0  0  0  0  0  0  0  0  0  0  0
    1.4586   -6.0474    0.0000 H   0  0  0  0  0  0  0  0  0  0  0  0
    0.2211   -5.3329    0.0000 N   0  0  0  0  0  0  0  0  0  0  0  0
   -0.1914   -4.6184    0.0000 C   0  0  0  0  0  0  0  0  0  0  0  0
    0.6336   -4.6184    0.0000 H   0  0  0  0  0  0  0  0  0  0  0  0
   -0.6039   -2.4750    0.0000 H   0  0  0  0  0  0  0  0  0  0  0  0
   -2.6664   -3.1895    0.0000 H   0  0  0  0  0  0  0  0  0  0  0  0
   -2.2539   -1.0461    0.0000 H   0  0  0  0  0  0  0  0  0  0  0  0
   -3.4914   -1.7605    0.0000 H   0  0  0  0  0  0  0  0  0  0  0  0
  1  2  2  0  0  0  0
  2  3  1  0  0  0  0
  3  4  2  0  0  0  0
  3  5  1  0  0  0  0
  5  6  1  0  0  0  0
  6  7  2  0  0  0  0
  7  8  1  0  0  0  0
  7  9  1  0  0  0  0
  9 10  1  0  0  0  0
  9 11  2  0  0  0  0
 11 12  1  0  0  0  0
 12 13  1  0  0  0  0
 13 14  1  0  0  0  0
 13 15  1  0  0  0  0
 13 16  1  0  0  0  0
 12 17  1  0  0  0  0
 17 18  1  0  0  0  0
 17 19  1  0  0  0  0
 17 20  1  0  0  0  0
 12 21  1  0  0  0  0
 21 22  1  0  0  0  0
 21 23  1  0  0  0  0
 21 24  1  0  0  0  0
 11 25  1  0  0  0  0
 25 26  1  0  0  0  0
 25 27  2  0  0  0  0
  6 27  1  0  0  0  0
 27 28  1  0  0  0  0
  5 29  1  0  0  0  0
 29 30  1  0  0  0  0
 30 31  2  0  0  0  0
 30 32  1  0  0  0  0
 32 33  1  0  0  0  0
 33 34  2  0  0  0  0
 34 35  1  0  0  0  0
 34 36  1  0  0  0  0
 36 37  1  0  0  0  0
 36 38  2  0  0  0  0
 38 39  1  0  0  0  0
 39 40  1  0  0  0  0
 40 41  1  0  0  0  0
 41 42  1  0  0  0  0
 38 42  1  0  0  0  0
 41 43  1  0  0  0  0
 41 44  1  0  0  0  0
 39 45  2  0  0  0  0
 33 45  1  0  0  0  0
 45 46  1  0  0  0  0
 32 47  1  0  0  0  0
 29 48  1  0  0  0  0
 48 49  2  0  0  0  0
 49 50  1  0  0  0  0
 49 51  1  0  0  0  0
 51 52  1  0  0  0  0
 51 53  2  0  0  0  0
 53 54  1  0  0  0  0
 53 55  1  0  0  0  0
 55 56  2  0  0  0  0
 48 56  1  0  0  0  0
 56 57  1  0  0  0  0
 29 58  1  0  0  0  0
  2 59  1  0  0  0  0
  1 60  1  0  0  0  0
  1 61  1  0  0  0  0
M  END
> <Potency>
36.0680676361585

> <pIC50>
4.442877124591358

> <Outcome>
Inactive

> <is_active>
0

$$$$

  Mrv1921 08232120312D          

 60 61  0  0  0  0            999 V2000
    0.0000   -2.4750    0.0000 C   0  0  0  0  0  0  0  0  0  0  0  0
    0.7145   -2.8875    0.0000 C   0  0  0  0  0  0  0  0  0  0  0  0
    1.4289   -2.4750    0.0000 C   0  0  0  0  0  0  0  0  0  0  0  0
    1.4289   -1.6500    0.0000 O   0  0  0  0  0  0  0  0  0  0  0  0
    2.1434   -2.8875    0.0000 N   0  0  0  0  0  0  0  0  0  0  0  0
    2.1434   -3.7125    0.0000 C   0  0  0  0  0  0  0  0  0  0  0  0
    2.8579   -4.1250    0.0000 C   0  0  0  0  0  0  0  0  0  0  0  0
    2.8579   -3.3000    0.0000 H   0  0  0  0  0  0  0  0  0  0  0  0
    2.8579   -4.9500    0.0000 C   0  0  0  0  0  0  0  0  0  0  0  0
    3.5724   -5.3625    0.0000 H   0  0  0  0  0  0  0  0  0  0  0  0
    2.1434   -5.3625    0.0000 C   0  0  0  0  0  0  0  0  0  0  0  0
    2.1434   -6.1875    0.0000 C   0  0  0  0  0  0  0  0  0  0  0  0
    2.1434   -7.0125    0.0000 C   0  0  0  0  0  0  0  0  0  0  0  0
    1.3184   -7.0125    0.0000 H   0  0  0  0  0  0  0  0  0  0  0  0
    2.1434   -7.8375    0.0000 H   0  0  0  0  0  0  0  0  0  0  0  0
    2.9684   -7.0125    0.0000 H   0  0  0  0  0  0  0  0  0  0  0  0
    2.9684   -6.1875    0.0000 C   0  0  0  0  0  0  0  0  0  0  0  0
    3.7306   -6.5032    0.0000 H   0  0  0  0  0  0  0  0  0  0  0  0
    3.5518   -5.6041    0.0000 H   0  0  0  0  0  0  0  0  0  0  0  0
    2.6527   -5.4253    0.0000 H   0  0  0  0  0  0  0  0  0  0  0  0
    1.3184   -6.1875    0.0000 C   0  0  0  0  0  0  0  0  0  0  0  0
    1.6341   -5.4253    0.0000 H   0  0  0  0  0  0  0  0  0  0  0  0
    0.7350   -5.6041    0.0000 H   0  0  0  0  0  0  0  0  0  0  0  0
    0.5562   -6.5032    0.0000 H   0  0  0  0  0  0  0  0  0  0  0  0
    1.4289   -4.9500    0.0000 C   0  0  0  0  0  0  0  0  0  0  0  0
    0.6715   -4.6231    0.0000 H   0  0  0  0  0  0  0  0  0  0  0  0
    1.4289   -4.1250    0.0000 C   0  0  0  0  0  0  0  0  0  0  0  0
    1.4289   -3.3000    0.0000 H   0  0  0  0  0  0  0  0  0  0  0  0
    2.8579   -2.4750    0.0000 C   0  0  0  0  0  0  0  0  0  0  0  0
    2.8579   -1.6500    0.0000 C   0  0  0  0  0  0  0  0  0  0  0  0
    2.1434   -1.2375    0.0000 O   0  0  0  0  0  0  0  0  0  0  0  0
    3.5724   -1.2375    0.0000 N   0  0  0  0  0  0  0  0  0  0  0  0
    3.5724   -0.4125    0.0000 C   0  0  0  0  0  0  0  0  0  0  0  0
    3.5724    0.4125    0.0000 C   0  0  0  0  0  0  0  0  0  0  0  0
    4.3974    0.4125    0.0000 H   0  0  0  0  0  0  0  0  0  0  0  0
    3.5724    1.2375    0.0000 H   0  0  0  0  0  0  0  0  0  0  0  0
    2.7474    0.4125    0.0000 H   0  0  0  0  0  0  0  0  0  0  0  0
    4.3974   -0.4125    0.0000 C   0  0  0  0  0  0  0  0  0  0  0  0
    4.0816   -1.1747    0.0000 H   0  0  0  0  0  0  0  0  0  0  0  0
    4.9807   -0.9959    0.0000 H   0  0  0  0  0  0  0  0  0  0  0  0
    5.1596   -0.0968    0.0000 H   0  0  0  0  0  0  0  0  0  0  0  0
    2.7474   -0.4125    0.0000 C   0  0  0  0  0  0  0  0  0  0  0  0
    1.9852   -0.0968    0.0000 H   0  0  0  0  0  0  0  0  0  0  0  0
    2.1640   -0.9959    0.0000 H   0  0  0  0  0  0  0  0  0  0  0  0
    3.0631   -1.1747    0.0000 H   0  0  0  0  0  0  0  0  0  0  0  0
    4.2868   -1.6500    0.0000 H   0  0  0  0  0  0  0  0  0  0  0  0
    3.5724   -2.8875    0.0000 C   0  0  0  0  0  0  0  0  0  0  0  0
    4.2868   -2.4750    0.0000 C   0  0  0  0  0  0  0  0  0  0  0  0
    3.5724   -2.0625    0.0000 H   0  0  0  0  0  0  0  0  0  0  0  0
    5.0013   -2.8875    0.0000 N   0  0  0  0  0  0  0  0  0  0  0  0
    5.0013   -3.7125    0.0000 C   0  0  0  0  0  0  0  0  0  0  0  0
    5.7158   -4.1250    0.0000 H   0  0  0  0  0  0  0  0  0  0  0  0
    4.2868   -4.1250    0.0000 C   0  0  0  0  0  0  0  0  0  0  0  0
    4.2868   -4.9500    0.0000 Cl  0  0  0  0  0  0  0  0  0  0  0  0
    3.5724   -3.7125    0.0000 C   0  0  0  0  0  0  0  0  0  0  0  0
    4.2868   -3.3000    0.0000 H   0  0  0  0  0  0  0  0  0  0  0  0
    2.1434   -2.0625    0.0000 H   0  0  0  0  0  0  0  0  0  0  0  0
    0.7145   -3.7125    0.0000 H   0  0  0  0  0  0  0  0  0  0  0  0
    0.0000   -1.6500    0.0000 H   0  0  0  0  0  0  0  0  0  0  0  0
   -0.7145   -2.8875    0.0000 H   0  0  0  0  0  0  0  0  0  0  0  0
  1  2  2  0  0  0  0
  2  3  1  0  0  0  0
  3  4  2  0  0  0  0
  3  5  1  0  0  0  0
  5  6  1  0  0  0  0
  6  7  2  0  0  0  0
  7  8  1  0  0  0  0
  7  9  1  0  0  0  0
  9 10  1  0  0  0  0
  9 11  2  0  0  0  0
 11 12  1  0  0  0  0
 12 13  1  0  0  0  0
 13 14  1  0  0  0  0
 13 15  1  0  0  0  0
 13 16  1  0  0  0  0
 12 17  1  0  0  0  0
 17 18  1  0  0  0  0
 17 19  1  0  0  0  0
 17 20  1  0  0  0  0
 12 21  1  0  0  0  0
 21 22  1  0  0  0  0
 21 23  1  0  0  0  0
 21 24  1  0  0  0  0
 11 25  1  0  0  0  0
 25 26  1  0  0  0  0
 25 27  2  0  0  0  0
  6 27  1  0  0  0  0
 27 28  1  0  0  0  0
  5 29  1  0  0  0  0
 29 30  1  0  0  0  0
 30 31  2  0  0  0  0
 30 32  1  0  0  0  0
 32 33  1  0  0  0  0
 33 34  1  0  0  0  0
 34 35  1  0  0  0  0
 34 36  1  0  0  0  0
 34 37  1  0  0  0  0
 33 38  1  0  0  0  0
 38 39  1  0  0  0  0
 38 40  1  0  0  0  0
 38 41  1  0  0  0  0
 33 42  1  0  0  0  0
 42 43  1  0  0  0  0
 42 44  1  0  0  0  0
 42 45  1  0  0  0  0
 32 46  1  0  0  0  0
 29 47  1  0  0  0  0
 47 48  2  0  0  0  0
 48 49  1  0  0  0  0
 48 50  1  0  0  0  0
 50 51  2  0  0  0  0
 51 52  1  0  0  0  0
 51 53  1  0  0  0  0
 53 54  1  0  0  0  0
 53 55  2  0  0  0  0
 47 55  1  0  0  0  0
 55 56  1  0  0  0  0
 29 57  1  0  0  0  0
  2 58  1  0  0  0  0
  1 59  1  0  0  0  0
  1 60  1  0  0  0  0
M  END
> <Potency>
65.5840093517116

> <pIC50>
4.183202037100937

> <Outcome>
Inactive

> <is_active>
0

$$$$

  Mrv1921 08232120312D          

 30 31  0  0  0  0            999 V2000
    5.9239   -1.5629    0.0000 O   0  0  0  0  0  0  0  0  0  0  0  0
    6.2594   -0.8092    0.0000 C   0  0  0  0  0  0  0  0  0  0  0  0
    7.0799   -0.7230    0.0000 C   0  0  0  0  0  0  0  0  0  0  0  0
    7.5648   -1.3904    0.0000 Cl  0  0  0  0  0  0  0  0  0  0  0  0
    7.7180   -0.2001    0.0000 H   0  0  0  0  0  0  0  0  0  0  0  0
    7.0415    0.1011    0.0000 H   0  0  0  0  0  0  0  0  0  0  0  0
    5.7745   -0.1418    0.0000 N   0  0  0  0  0  0  0  0  0  0  0  0
    4.9540   -0.2280    0.0000 C   0  0  0  0  0  0  0  0  0  0  0  0
    4.6184   -0.9817    0.0000 C   0  0  0  0  0  0  0  0  0  0  0  0
    5.1034   -1.6491    0.0000 H   0  0  0  0  0  0  0  0  0  0  0  0
    3.7980   -1.0679    0.0000 C   0  0  0  0  0  0  0  0  0  0  0  0
    3.4624   -1.8216    0.0000 H   0  0  0  0  0  0  0  0  0  0  0  0
    3.3130   -0.4005    0.0000 C   0  0  0  0  0  0  0  0  0  0  0  0
    2.4926   -0.4867    0.0000 H   0  0  0  0  0  0  0  0  0  0  0  0
    3.6486    0.3532    0.0000 C   0  0  0  0  0  0  0  0  0  0  0  0
    3.1637    1.0206    0.0000 N   0  0  0  0  0  0  0  0  0  0  0  0
    2.3387    1.0206    0.0000 C   0  0  0  0  0  0  0  0  0  0  0  0
    1.5972    0.6590    0.0000 H   0  0  0  0  0  0  0  0  0  0  0  0
    2.2239    0.2037    0.0000 H   0  0  0  0  0  0  0  0  0  0  0  0
    2.0837    1.8053    0.0000 C   0  0  0  0  0  0  0  0  0  0  0  0
    1.5106    2.3987    0.0000 H   0  0  0  0  0  0  0  0  0  0  0  0
    1.2713    1.6620    0.0000 H   0  0  0  0  0  0  0  0  0  0  0  0
    2.7512    2.2902    0.0000 C   0  0  0  0  0  0  0  0  0  0  0  0
    3.1385    3.0186    0.0000 H   0  0  0  0  0  0  0  0  0  0  0  0
    2.3639    3.0186    0.0000 H   0  0  0  0  0  0  0  0  0  0  0  0
    3.4186    1.8053    0.0000 C   0  0  0  0  0  0  0  0  0  0  0  0
    4.2032    2.0602    0.0000 O   0  0  0  0  0  0  0  0  0  0  0  0
    4.4691    0.4394    0.0000 C   0  0  0  0  0  0  0  0  0  0  0  0
    4.8046    1.1931    0.0000 H   0  0  0  0  0  0  0  0  0  0  0  0
    6.1100    0.6119    0.0000 H   0  0  0  0  0  0  0  0  0  0  0  0
  1  2  2  0  0  0  0
  2  3  1  0  0  0  0
  3  4  1  0  0  0  0
  3  5  1  0  0  0  0
  3  6  1  0  0  0  0
  2  7  1  0  0  0  0
  7  8  1  0  0  0  0
  8  9  2  0  0  0  0
  9 10  1  0  0  0  0
  9 11  1  0  0  0  0
 11 12  1  0  0  0  0
 11 13  2  0  0  0  0
 13 14  1  0  0  0  0
 13 15  1  0  0  0  0
 15 16  1  0  0  0  0
 16 17  1  0  0  0  0
 17 18  1  0  0  0  0
 17 19  1  0  0  0  0
 17 20  1  0  0  0  0
 20 21  1  0  0  0  0
 20 22  1  0  0  0  0
 20 23  1  0  0  0  0
 23 24  1  0  0  0  0
 23 25  1  0  0  0  0
 23 26  1  0  0  0  0
 16 26  1  0  0  0  0
 26 27  2  0  0  0  0
 15 28  2  0  0  0  0
  8 28  1  0  0  0  0
 28 29  1  0  0  0  0
  7 30  1  0  0  0  0
M  END
> <Potency>
70.328583055413

> <pIC50>
4.152868132443189

> <Outcome>
Inactive

> <is_active>
0

$$$$

  Mrv1921 08232120312D          

 60 61  0  0  0  0            999 V2000
    0.0000   -2.4750    0.0000 C   0  0  0  0  0  0  0  0  0  0  0  0
    0.7145   -2.8875    0.0000 C   0  0  0  0  0  0  0  0  0  0  0  0
    1.4289   -2.4750    0.0000 C   0  0  0  0  0  0  0  0  0  0  0  0
    1.4289   -1.6500    0.0000 O   0  0  0  0  0  0  0  0  0  0  0  0
    2.1434   -2.8875    0.0000 N   0  0  0  0  0  0  0  0  0  0  0  0
    2.1434   -3.7125    0.0000 C   0  0  0  0  0  0  0  0  0  0  0  0
    2.8579   -4.1250    0.0000 C   0  0  0  0  0  0  0  0  0  0  0  0
    2.8579   -3.3000    0.0000 H   0  0  0  0  0  0  0  0  0  0  0  0
    2.8579   -4.9500    0.0000 C   0  0  0  0  0  0  0  0  0  0  0  0
    3.5724   -5.3625    0.0000 H   0  0  0  0  0  0  0  0  0  0  0  0
    2.1434   -5.3625    0.0000 C   0  0  0  0  0  0  0  0  0  0  0  0
    2.1434   -6.1875    0.0000 C   0  0  0  0  0  0  0  0  0  0  0  0
    2.1434   -7.0125    0.0000 C   0  0  0  0  0  0  0  0  0  0  0  0
    1.3184   -7.0125    0.0000 H   0  0  0  0  0  0  0  0  0  0  0  0
    2.1434   -7.8375    0.0000 H   0  0  0  0  0  0  0  0  0  0  0  0
    2.9684   -7.0125    0.0000 H   0  0  0  0  0  0  0  0  0  0  0  0
    2.9684   -6.1875    0.0000 C   0  0  0  0  0  0  0  0  0  0  0  0
    3.7306   -6.5032    0.0000 H   0  0  0  0  0  0  0  0  0  0  0  0
    3.5518   -5.6041    0.0000 H   0  0  0  0  0  0  0  0  0  0  0  0
    2.6527   -5.4253    0.0000 H   0  0  0  0  0  0  0  0  0  0  0  0
    1.3184   -6.1875    0.0000 C   0  0  0  0  0  0  0  0  0  0  0  0
    1.6341   -5.4253    0.0000 H   0  0  0  0  0  0  0  0  0  0  0  0
    0.7350   -5.6041    0.0000 H   0  0  0  0  0  0  0  0  0  0  0  0
    0.5562   -6.5032    0.0000 H   0  0  0  0  0  0  0  0  0  0  0  0
    1.4289   -4.9500    0.0000 C   0  0  0  0  0  0  0  0  0  0  0  0
    0.6715   -4.6231    0.0000 H   0  0  0  0  0  0  0  0  0  0  0  0
    1.4289   -4.1250    0.0000 C   0  0  0  0  0  0  0  0  0  0  0  0
    1.4289   -3.3000    0.0000 H   0  0  0  0  0  0  0  0  0  0  0  0
    2.8579   -2.4750    0.0000 C   0  0  0  0  0  0  0  0  0  0  0  0
    2.8579   -1.6500    0.0000 C   0  0  0  0  0  0  0  0  0  0  0  0
    2.1434   -1.2375    0.0000 O   0  0  0  0  0  0  0  0  0  0  0  0
    3.5724   -1.2375    0.0000 N   0  0  0  0  0  0  0  0  0  0  0  0
    3.5724   -0.4125    0.0000 C   0  0  0  0  0  0  0  0  0  0  0  0
    3.5724    0.4125    0.0000 C   0  0  0  0  0  0  0  0  0  0  0  0
    4.3974    0.4125    0.0000 H   0  0  0  0  0  0  0  0  0  0  0  0
    3.5724    1.2375    0.0000 H   0  0  0  0  0  0  0  0  0  0  0  0
    2.7474    0.4125    0.0000 H   0  0  0  0  0  0  0  0  0  0  0  0
    4.3974   -0.4125    0.0000 C   0  0  0  0  0  0  0  0  0  0  0  0
    4.0816   -1.1747    0.0000 H   0  0  0  0  0  0  0  0  0  0  0  0
    4.9807   -0.9959    0.0000 H   0  0  0  0  0  0  0  0  0  0  0  0
    5.1596   -0.0968    0.0000 H   0  0  0  0  0  0  0  0  0  0  0  0
    2.7474   -0.4125    0.0000 C   0  0  0  0  0  0  0  0  0  0  0  0
    1.9852   -0.0968    0.0000 H   0  0  0  0  0  0  0  0  0  0  0  0
    2.1640   -0.9959    0.0000 H   0  0  0  0  0  0  0  0  0  0  0  0
    3.0631   -1.1747    0.0000 H   0  0  0  0  0  0  0  0  0  0  0  0
    4.2868   -1.6500    0.0000 H   0  0  0  0  0  0  0  0  0  0  0  0
    3.5724   -2.8875    0.0000 C   0  0  0  0  0  0  0  0  0  0  0  0
    4.2868   -2.4750    0.0000 C   0  0  0  0  0  0  0  0  0  0  0  0
    3.5724   -2.0625    0.0000 H   0  0  0  0  0  0  0  0  0  0  0  0
    5.0013   -2.8875    0.0000 C   0  0  0  0  0  0  0  0  0  0  0  0
    5.7158   -2.4750    0.0000 H   0  0  0  0  0  0  0  0  0  0  0  0
    5.0013   -3.7125    0.0000 C   0  0  0  0  0  0  0  0  0  0  0  0
    5.7158   -4.1250    0.0000 H   0  0  0  0  0  0  0  0  0  0  0  0
    4.2868   -4.1250    0.0000 N   0  0  0  0  0  0  0  0  0  0  0  0
    3.5724   -3.7125    0.0000 C   0  0  0  0  0  0  0  0  0  0  0  0
    4.2868   -3.3000    0.0000 H   0  0  0  0  0  0  0  0  0  0  0  0
    2.1434   -2.0625    0.0000 H   0  0  0  0  0  0  0  0  0  0  0  0
    0.7145   -3.7125    0.0000 H   0  0  0  0  0  0  0  0  0  0  0  0
    0.0000   -1.6500    0.0000 H   0  0  0  0  0  0  0  0  0  0  0  0
   -0.7145   -2.8875    0.0000 H   0  0  0  0  0  0  0  0  0  0  0  0
  1  2  2  0  0  0  0
  2  3  1  0  0  0  0
  3  4  2  0  0  0  0
  3  5  1  0  0  0  0
  5  6  1  0  0  0  0
  6  7  2  0  0  0  0
  7  8  1  0  0  0  0
  7  9  1  0  0  0  0
  9 10  1  0  0  0  0
  9 11  2  0  0  0  0
 11 12  1  0  0  0  0
 12 13  1  0  0  0  0
 13 14  1  0  0  0  0
 13 15  1  0  0  0  0
 13 16  1  0  0  0  0
 12 17  1  0  0  0  0
 17 18  1  0  0  0  0
 17 19  1  0  0  0  0
 17 20  1  0  0  0  0
 12 21  1  0  0  0  0
 21 22  1  0  0  0  0
 21 23  1  0  0  0  0
 21 24  1  0  0  0  0
 11 25  1  0  0  0  0
 25 26  1  0  0  0  0
 25 27  2  0  0  0  0
  6 27  1  0  0  0  0
 27 28  1  0  0  0  0
  5 29  1  0  0  0  0
 29 30  1  0  0  0  0
 30 31  2  0  0  0  0
 30 32  1  0  0  0  0
 32 33  1  0  0  0  0
 33 34  1  0  0  0  0
 34 35  1  0  0  0  0
 34 36  1  0  0  0  0
 34 37  1  0  0  0  0
 33 38  1  0  0  0  0
 38 39  1  0  0  0  0
 38 40  1  0  0  0  0
 38 41  1  0  0  0  0
 33 42  1  0  0  0  0
 42 43  1  0  0  0  0
 42 44  1  0  0  0  0
 42 45  1  0  0  0  0
 32 46  1  0  0  0  0
 29 47  1  0  0  0  0
 47 48  2  0  0  0  0
 48 49  1  0  0  0  0
 48 50  1  0  0  0  0
 50 51  1  0  0  0  0
 50 52  2  0  0  0  0
 52 53  1  0  0  0  0
 52 54  1  0  0  0  0
 54 55  2  0  0  0  0
 47 55  1  0  0  0  0
 55 56  1  0  0  0  0
 29 57  1  0  0  0  0
  2 58  1  0  0  0  0
  1 59  1  0  0  0  0
  1 60  1  0  0  0  0
M  END
> <Potency>
99.0

> <pIC50>
4.00436480540245

> <Outcome>
Inactive

> <is_active>
0

$$$$

  Mrv1921 08232120312D          

 38 40  0  0  0  0            999 V2000
    3.6528    0.7717    0.0000 O   0  0  0  0  0  0  0  0  0  0  0  0
    2.8775    1.0538    0.0000 C   0  0  0  0  0  0  0  0  0  0  0  0
    2.7343    1.8663    0.0000 C   0  0  0  0  0  0  0  0  0  0  0  0
    3.3663    2.3966    0.0000 Cl  0  0  0  0  0  0  0  0  0  0  0  0
    2.1681    2.4664    0.0000 H   0  0  0  0  0  0  0  0  0  0  0  0
    1.9149    1.7705    0.0000 H   0  0  0  0  0  0  0  0  0  0  0  0
    2.2456    0.5235    0.0000 N   0  0  0  0  0  0  0  0  0  0  0  0
    2.3888   -0.2889    0.0000 C   0  0  0  0  0  0  0  0  0  0  0  0
    2.9550   -0.8890    0.0000 H   0  0  0  0  0  0  0  0  0  0  0  0
    3.2082   -0.1931    0.0000 H   0  0  0  0  0  0  0  0  0  0  0  0
    1.7568   -0.8192    0.0000 C   0  0  0  0  0  0  0  0  0  0  0  0
    1.5202   -1.6096    0.0000 H   0  0  0  0  0  0  0  0  0  0  0  0
    2.2495   -1.4810    0.0000 H   0  0  0  0  0  0  0  0  0  0  0  0
    0.9816   -0.5371    0.0000 N   0  0  0  0  0  0  0  0  0  0  0  0
    0.3496   -1.0674    0.0000 C   0  0  0  0  0  0  0  0  0  0  0  0
   -0.2824   -0.5371    0.0000 C   0  0  0  0  0  0  0  0  0  0  0  0
   -1.0576   -0.8192    0.0000 C   0  0  0  0  0  0  0  0  0  0  0  0
   -1.2009   -1.6317    0.0000 H   0  0  0  0  0  0  0  0  0  0  0  0
   -1.6896   -0.2889    0.0000 C   0  0  0  0  0  0  0  0  0  0  0  0
   -2.4649   -0.5711    0.0000 H   0  0  0  0  0  0  0  0  0  0  0  0
   -1.5464    0.5235    0.0000 C   0  0  0  0  0  0  0  0  0  0  0  0
   -2.1784    1.0538    0.0000 H   0  0  0  0  0  0  0  0  0  0  0  0
   -0.7711    0.8057    0.0000 C   0  0  0  0  0  0  0  0  0  0  0  0
   -0.6279    1.6182    0.0000 Cl  0  0  0  0  0  0  0  0  0  0  0  0
   -0.1391    0.2754    0.0000 C   0  0  0  0  0  0  0  0  0  0  0  0
    0.6361    0.5576    0.0000 H   0  0  0  0  0  0  0  0  0  0  0  0
    0.7621   -1.7818    0.0000 C   0  0  0  0  0  0  0  0  0  0  0  0
    0.5483   -2.5786    0.0000 H   0  0  0  0  0  0  0  0  0  0  0  0
    1.1472   -2.5114    0.0000 H   0  0  0  0  0  0  0  0  0  0  0  0
   -0.0629   -1.7818    0.0000 C   0  0  0  0  0  0  0  0  0  0  0  0
   -0.8865   -1.7339    0.0000 H   0  0  0  0  0  0  0  0  0  0  0  0
   -0.4332   -2.5191    0.0000 H   0  0  0  0  0  0  0  0  0  0  0  0
    0.8383    0.2754    0.0000 C   0  0  0  0  0  0  0  0  0  0  0  0
    0.0779   -0.0445    0.0000 H   0  0  0  0  0  0  0  0  0  0  0  0
    1.6136   -0.0068    0.0000 H   0  0  0  0  0  0  0  0  0  0  0  0
    1.4703    0.8057    0.0000 C   0  0  0  0  0  0  0  0  0  0  0  0
    1.8291    1.5486    0.0000 H   0  0  0  0  0  0  0  0  0  0  0  0
    1.1567    1.5688    0.0000 H   0  0  0  0  0  0  0  0  0  0  0  0
  1  2  2  0  0  0  0
  2  3  1  0  0  0  0
  3  4  1  0  0  0  0
  3  5  1  0  0  0  0
  3  6  1  0  0  0  0
  2  7  1  0  0  0  0
  7  8  1  0  0  0  0
  8  9  1  0  0  0  0
  8 10  1  0  0  0  0
  8 11  1  0  0  0  0
 11 12  1  0  0  0  0
 11 13  1  0  0  0  0
 11 14  1  0  0  0  0
 14 15  1  0  0  0  0
 15 16  1  0  0  0  0
 16 17  2  0  0  0  0
 17 18  1  0  0  0  0
 17 19  1  0  0  0  0
 19 20  1  0  0  0  0
 19 21  2  0  0  0  0
 21 22  1  0  0  0  0
 21 23  1  0  0  0  0
 23 24  1  0  0  0  0
 23 25  2  0  0  0  0
 16 25  1  0  0  0  0
 25 26  1  0  0  0  0
 15 27  1  0  0  0  0
 27 28  1  0  0  0  0
 27 29  1  0  0  0  0
 27 30  1  0  0  0  0
 15 30  1  0  0  0  0
 30 31  1  0  0  0  0
 30 32  1  0  0  0  0
 14 33  1  0  0  0  0
 33 34  1  0  0  0  0
 33 35  1  0  0  0  0
 33 36  1  0  0  0  0
  7 36  1  0  0  0  0
 36 37  1  0  0  0  0
 36 38  1  0  0  0  0
M  END
> <Potency>
52.2610865837861

> <pIC50>
4.281821564902671

> <Outcome>
Inactive

> <is_active>
0

$$$$

  Mrv1921 08232120312D          

 43 45  0  0  0  0            999 V2000
    5.6091    0.7634    0.0000 O   0  0  0  0  0  0  0  0  0  0  0  0
    4.8946    1.1759    0.0000 C   0  0  0  0  0  0  0  0  0  0  0  0
    4.8946    2.0009    0.0000 C   0  0  0  0  0  0  0  0  0  0  0  0
    5.6091    2.4134    0.0000 Cl  0  0  0  0  0  0  0  0  0  0  0  0
    4.4412    2.6902    0.0000 H   0  0  0  0  0  0  0  0  0  0  0  0
    4.0710    2.0489    0.0000 H   0  0  0  0  0  0  0  0  0  0  0  0
    4.1801    0.7634    0.0000 N   0  0  0  0  0  0  0  0  0  0  0  0
    4.1801   -0.0616    0.0000 C   0  0  0  0  0  0  0  0  0  0  0  0
    4.6335   -0.7509    0.0000 H   0  0  0  0  0  0  0  0  0  0  0  0
    5.0037   -0.1096    0.0000 H   0  0  0  0  0  0  0  0  0  0  0  0
    3.4656   -0.4741    0.0000 C   0  0  0  0  0  0  0  0  0  0  0  0
    3.0954   -1.2114    0.0000 H   0  0  0  0  0  0  0  0  0  0  0  0
    3.8359   -1.2114    0.0000 H   0  0  0  0  0  0  0  0  0  0  0  0
    2.7512   -0.0616    0.0000 N   0  0  0  0  0  0  0  0  0  0  0  0
    2.0367   -0.4741    0.0000 C   0  0  0  0  0  0  0  0  0  0  0  0
    2.0367   -1.2991    0.0000 C   0  0  0  0  0  0  0  0  0  0  0  0
    2.7041   -1.7840    0.0000 C   0  0  0  0  0  0  0  0  0  0  0  0
    3.4446   -2.1479    0.0000 H   0  0  0  0  0  0  0  0  0  0  0  0
    2.4492   -2.5687    0.0000 N   0  0  0  0  0  0  0  0  0  0  0  0
    1.6242   -2.5687    0.0000 C   0  0  0  0  0  0  0  0  0  0  0  0
    1.1393   -3.2361    0.0000 C   0  0  0  0  0  0  0  0  0  0  0  0
    0.3188   -3.1499    0.0000 C   0  0  0  0  0  0  0  0  0  0  0  0
   -0.1661   -3.8173    0.0000 C   0  0  0  0  0  0  0  0  0  0  0  0
    0.1694   -4.5710    0.0000 H   0  0  0  0  0  0  0  0  0  0  0  0
   -0.9866   -3.7311    0.0000 C   0  0  0  0  0  0  0  0  0  0  0  0
   -1.4715   -4.3985    0.0000 H   0  0  0  0  0  0  0  0  0  0  0  0
   -1.3222   -2.9774    0.0000 C   0  0  0  0  0  0  0  0  0  0  0  0
   -2.1426   -2.8911    0.0000 H   0  0  0  0  0  0  0  0  0  0  0  0
   -0.8372   -2.3099    0.0000 C   0  0  0  0  0  0  0  0  0  0  0  0
   -1.1728   -1.5563    0.0000 H   0  0  0  0  0  0  0  0  0  0  0  0
   -0.0168   -2.3962    0.0000 C   0  0  0  0  0  0  0  0  0  0  0  0
    0.4682   -1.7287    0.0000 H   0  0  0  0  0  0  0  0  0  0  0  0
    1.1009   -4.0602    0.0000 H   0  0  0  0  0  0  0  0  0  0  0  0
    1.7774   -3.7590    0.0000 H   0  0  0  0  0  0  0  0  0  0  0  0
    1.3693   -1.7840    0.0000 S   0  0  0  0  0  0  0  0  0  0  0  0
    1.5834    0.2152    0.0000 H   0  0  0  0  0  0  0  0  0  0  0  0
    1.2131   -0.4261    0.0000 H   0  0  0  0  0  0  0  0  0  0  0  0
    2.7512    0.7634    0.0000 C   0  0  0  0  0  0  0  0  0  0  0  0
    2.2978    1.4527    0.0000 H   0  0  0  0  0  0  0  0  0  0  0  0
    1.9276    0.8114    0.0000 H   0  0  0  0  0  0  0  0  0  0  0  0
    3.4656    1.1759    0.0000 C   0  0  0  0  0  0  0  0  0  0  0  0
    3.8359    1.9131    0.0000 H   0  0  0  0  0  0  0  0  0  0  0  0
    3.0954    1.9131    0.0000 H   0  0  0  0  0  0  0  0  0  0  0  0
  1  2  2  0  0  0  0
  2  3  1  0  0  0  0
  3  4  1  0  0  0  0
  3  5  1  0  0  0  0
  3  6  1  0  0  0  0
  2  7  1  0  0  0  0
  7  8  1  0  0  0  0
  8  9  1  0  0  0  0
  8 10  1  0  0  0  0
  8 11  1  0  0  0  0
 11 12  1  0  0  0  0
 11 13  1  0  0  0  0
 11 14  1  0  0  0  0
 14 15  1  0  0  0  0
 15 16  1  0  0  0  0
 16 17  2  0  0  0  0
 17 18  1  0  0  0  0
 17 19  1  0  0  0  0
 19 20  2  0  0  0  0
 20 21  1  0  0  0  0
 21 22  1  0  0  0  0
 22 23  2  0  0  0  0
 23 24  1  0  0  0  0
 23 25  1  0  0  0  0
 25 26  1  0  0  0  0
 25 27  2  0  0  0  0
 27 28  1  0  0  0  0
 27 29  1  0  0  0  0
 29 30  1  0  0  0  0
 29 31  2  0  0  0  0
 22 31  1  0  0  0  0
 31 32  1  0  0  0  0
 21 33  1  0  0  0  0
 21 34  1  0  0  0  0
 20 35  1  0  0  0  0
 16 35  1  0  0  0  0
 15 36  1  0  0  0  0
 15 37  1  0  0  0  0
 14 38  1  0  0  0  0
 38 39  1  0  0  0  0
 38 40  1  0  0  0  0
 38 41  1  0  0  0  0
  7 41  1  0  0  0  0
 41 42  1  0  0  0  0
 41 43  1  0  0  0  0
M  END
> <Potency>
29.7544228748228

> <pIC50>
4.526448469015741

> <Outcome>
Inactive

> <is_active>
0

$$$$

  Mrv1921 08232120312D          

 60 62  0  0  0  0            999 V2000
    0.1914   -1.7605    0.0000 C   0  0  0  0  0  0  0  0  0  0  0  0
    0.6039   -2.4750    0.0000 C   0  0  0  0  0  0  0  0  0  0  0  0
    1.4289   -2.4750    0.0000 C   0  0  0  0  0  0  0  0  0  0  0  0
    1.8414   -1.7605    0.0000 O   0  0  0  0  0  0  0  0  0  0  0  0
    1.8414   -3.1895    0.0000 N   0  0  0  0  0  0  0  0  0  0  0  0
    1.4289   -3.9039    0.0000 C   0  0  0  0  0  0  0  0  0  0  0  0
    1.7645   -4.6576    0.0000 C   0  0  0  0  0  0  0  0  0  0  0  0
    2.0768   -5.4212    0.0000 H   0  0  0  0  0  0  0  0  0  0  0  0
    1.1514   -5.2096    0.0000 C   0  0  0  0  0  0  0  0  0  0  0  0
    1.2376   -6.0301    0.0000 C   0  0  0  0  0  0  0  0  0  0  0  0
    1.3239   -6.8506    0.0000 C   0  0  0  0  0  0  0  0  0  0  0  0
    0.5034   -6.9368    0.0000 H   0  0  0  0  0  0  0  0  0  0  0  0
    1.4101   -7.6711    0.0000 H   0  0  0  0  0  0  0  0  0  0  0  0
    2.1444   -6.7644    0.0000 H   0  0  0  0  0  0  0  0  0  0  0  0
    2.0581   -5.9439    0.0000 C   0  0  0  0  0  0  0  0  0  0  0  0
    2.6806   -6.4853    0.0000 H   0  0  0  0  0  0  0  0  0  0  0  0
    2.8826   -5.9154    0.0000 H   0  0  0  0  0  0  0  0  0  0  0  0
    2.6418   -5.3609    0.0000 H   0  0  0  0  0  0  0  0  0  0  0  0
    0.4172   -6.1164    0.0000 C   0  0  0  0  0  0  0  0  0  0  0  0
    0.6515   -5.3253    0.0000 H   0  0  0  0  0  0  0  0  0  0  0  0
   -0.2240   -5.5972    0.0000 H   0  0  0  0  0  0  0  0  0  0  0  0
   -0.3079   -6.5100    0.0000 H   0  0  0  0  0  0  0  0  0  0  0  0
    0.4369   -4.7971    0.0000 O   0  0  0  0  0  0  0  0  0  0  0  0
    0.6085   -3.9902    0.0000 N   0  0  0  0  0  0  0  0  0  0  0  0
    2.6664   -3.1895    0.0000 C   0  0  0  0  0  0  0  0  0  0  0  0
    3.0789   -2.4750    0.0000 C   0  0  0  0  0  0  0  0  0  0  0  0
    2.6664   -1.7605    0.0000 O   0  0  0  0  0  0  0  0  0  0  0  0
    3.9039   -2.4750    0.0000 N   0  0  0  0  0  0  0  0  0  0  0  0
    4.3164   -1.7605    0.0000 C   0  0  0  0  0  0  0  0  0  0  0  0
    3.9039   -1.0461    0.0000 C   0  0  0  0  0  0  0  0  0  0  0  0
    3.0789   -1.0461    0.0000 H   0  0  0  0  0  0  0  0  0  0  0  0
    4.3164   -0.3316    0.0000 C   0  0  0  0  0  0  0  0  0  0  0  0
    3.9039    0.3829    0.0000 H   0  0  0  0  0  0  0  0  0  0  0  0
    5.1414   -0.3316    0.0000 C   0  0  0  0  0  0  0  0  0  0  0  0
    5.5539    0.3829    0.0000 H   0  0  0  0  0  0  0  0  0  0  0  0
    5.5539   -1.0461    0.0000 C   0  0  0  0  0  0  0  0  0  0  0  0
    6.3789   -1.0461    0.0000 C   0  0  0  0  0  0  0  0  0  0  0  0
    6.7914   -0.3316    0.0000 C   0  0  0  0  0  0  0  0  0  0  0  0
    7.5059   -0.7441    0.0000 H   0  0  0  0  0  0  0  0  0  0  0  0
    7.2039    0.3829    0.0000 H   0  0  0  0  0  0  0  0  0  0  0  0
    6.0770    0.0809    0.0000 H   0  0  0  0  0  0  0  0  0  0  0  0
    6.4269   -1.8697    0.0000 H   0  0  0  0  0  0  0  0  0  0  0  0
    7.0682   -1.4994    0.0000 H   0  0  0  0  0  0  0  0  0  0  0  0
    5.1414   -1.7605    0.0000 C   0  0  0  0  0  0  0  0  0  0  0  0
    5.5539   -2.4750    0.0000 H   0  0  0  0  0  0  0  0  0  0  0  0
    4.3164   -3.1895    0.0000 H   0  0  0  0  0  0  0  0  0  0  0  0
    3.0789   -3.9039    0.0000 C   0  0  0  0  0  0  0  0  0  0  0  0
    3.9039   -3.9039    0.0000 C   0  0  0  0  0  0  0  0  0  0  0  0
    3.4914   -3.1895    0.0000 H   0  0  0  0  0  0  0  0  0  0  0  0
    4.3164   -4.6184    0.0000 C   0  0  0  0  0  0  0  0  0  0  0  0
    5.1414   -4.6184    0.0000 H   0  0  0  0  0  0  0  0  0  0  0  0
    3.9039   -5.3329    0.0000 C   0  0  0  0  0  0  0  0  0  0  0  0
    4.3164   -6.0474    0.0000 H   0  0  0  0  0  0  0  0  0  0  0  0
    3.0789   -5.3329    0.0000 N   0  0  0  0  0  0  0  0  0  0  0  0
    2.6664   -4.6184    0.0000 C   0  0  0  0  0  0  0  0  0  0  0  0
    2.2385   -3.9131    0.0000 H   0  0  0  0  0  0  0  0  0  0  0  0
    2.2539   -2.4750    0.0000 H   0  0  0  0  0  0  0  0  0  0  0  0
    0.1914   -3.1895    0.0000 H   0  0  0  0  0  0  0  0  0  0  0  0
    0.6039   -1.0461    0.0000 H   0  0  0  0  0  0  0  0  0  0  0  0
   -0.6336   -1.7605    0.0000 H   0  0  0  0  0  0  0  0  0  0  0  0
  1  2  2  0  0  0  0
  2  3  1  0  0  0  0
  3  4  2  0  0  0  0
  3  5  1  0  0  0  0
  5  6  1  0  0  0  0
  6  7  1  0  0  0  0
  7  8  1  0  0  0  0
  7  9  2  0  0  0  0
  9 10  1  0  0  0  0
 10 11  1  0  0  0  0
 11 12  1  0  0  0  0
 11 13  1  0  0  0  0
 11 14  1  0  0  0  0
 10 15  1  0  0  0  0
 15 16  1  0  0  0  0
 15 17  1  0  0  0  0
 15 18  1  0  0  0  0
 10 19  1  0  0  0  0
 19 20  1  0  0  0  0
 19 21  1  0  0  0  0
 19 22  1  0  0  0  0
  9 23  1  0  0  0  0
 23 24  1  0  0  0  0
  6 24  2  0  0  0  0
  5 25  1  0  0  0  0
 25 26  1  0  0  0  0
 26 27  2  0  0  0  0
 26 28  1  0  0  0  0
 28 29  1  0  0  0  0
 29 30  2  0  0  0  0
 30 31  1  0  0  0  0
 30 32  1  0  0  0  0
 32 33  1  0  0  0  0
 32 34  2  0  0  0  0
 34 35  1  0  0  0  0
 34 36  1  0  0  0  0
 36 37  1  0  0  0  0
 37 38  1  0  0  0  0
 38 39  1  0  0  0  0
 38 40  1  0  0  0  0
 38 41  1  0  0  0  0
 37 42  1  0  0  0  0
 37 43  1  0  0  0  0
 36 44  2  0  0  0  0
 29 44  1  0  0  0  0
 44 45  1  0  0  0  0
 28 46  1  0  0  0  0
 25 47  1  0  0  0  0
 47 48  2  0  0  0  0
 48 49  1  0  0  0  0
 48 50  1  0  0  0  0
 50 51  1  0  0  0  0
 50 52  2  0  0  0  0
 52 53  1  0  0  0  0
 52 54  1  0  0  0  0
 54 55  2  0  0  0  0
 47 55  1  0  0  0  0
 55 56  1  0  0  0  0
 25 57  1  0  0  0  0
  2 58  1  0  0  0  0
  1 59  1  0  0  0  0
  1 60  1  0  0  0  0
M  END
> <Potency>
99.01

> <pIC50>
4.004320939488378

> <Outcome>
Inactive

> <is_active>
0

$$$$

  Mrv1921 08232120312D          

 62 64  0  0  0  0            999 V2000
    0.1914   -1.7605    0.0000 C   0  0  0  0  0  0  0  0  0  0  0  0
    0.6039   -2.4750    0.0000 C   0  0  0  0  0  0  0  0  0  0  0  0
    1.4289   -2.4750    0.0000 C   0  0  0  0  0  0  0  0  0  0  0  0
    1.8414   -1.7605    0.0000 O   0  0  0  0  0  0  0  0  0  0  0  0
    1.8414   -3.1895    0.0000 N   0  0  0  0  0  0  0  0  0  0  0  0
    1.4289   -3.9039    0.0000 C   0  0  0  0  0  0  0  0  0  0  0  0
    1.8414   -4.6184    0.0000 C   0  0  0  0  0  0  0  0  0  0  0  0
    2.2539   -3.9039    0.0000 H   0  0  0  0  0  0  0  0  0  0  0  0
    1.4289   -5.3329    0.0000 C   0  0  0  0  0  0  0  0  0  0  0  0
    1.8414   -6.0474    0.0000 H   0  0  0  0  0  0  0  0  0  0  0  0
    0.6039   -5.3329    0.0000 C   0  0  0  0  0  0  0  0  0  0  0  0
    0.1914   -6.0474    0.0000 C   0  0  0  0  0  0  0  0  0  0  0  0
    0.6039   -6.7618    0.0000 C   0  0  0  0  0  0  0  0  0  0  0  0
   -0.1929   -6.9754    0.0000 H   0  0  0  0  0  0  0  0  0  0  0  0
    0.6039   -7.5868    0.0000 H   0  0  0  0  0  0  0  0  0  0  0  0
    1.4008   -6.9754    0.0000 H   0  0  0  0  0  0  0  0  0  0  0  0
   -0.6336   -6.0474    0.0000 O   0  0  0  0  0  0  0  0  0  0  0  0
   -1.0461   -6.7618    0.0000 C   0  0  0  0  0  0  0  0  0  0  0  0
   -1.5926   -6.1438    0.0000 H   0  0  0  0  0  0  0  0  0  0  0  0
   -1.8056   -7.0838    0.0000 H   0  0  0  0  0  0  0  0  0  0  0  0
   -0.9819   -7.5843    0.0000 H   0  0  0  0  0  0  0  0  0  0  0  0
    1.0164   -6.0474    0.0000 H   0  0  0  0  0  0  0  0  0  0  0  0
    0.1914   -4.6184    0.0000 C   0  0  0  0  0  0  0  0  0  0  0  0
   -0.6336   -4.6184    0.0000 H   0  0  0  0  0  0  0  0  0  0  0  0
    0.6039   -3.9039    0.0000 C   0  0  0  0  0  0  0  0  0  0  0  0
    1.0164   -3.1895    0.0000 H   0  0  0  0  0  0  0  0  0  0  0  0
    2.6664   -3.1895    0.0000 C   0  0  0  0  0  0  0  0  0  0  0  0
    3.0789   -2.4750    0.0000 C   0  0  0  0  0  0  0  0  0  0  0  0
    2.6664   -1.7605    0.0000 O   0  0  0  0  0  0  0  0  0  0  0  0
    3.9039   -2.4750    0.0000 N   0  0  0  0  0  0  0  0  0  0  0  0
    4.3164   -1.7605    0.0000 C   0  0  0  0  0  0  0  0  0  0  0  0
    3.9039   -1.0461    0.0000 C   0  0  0  0  0  0  0  0  0  0  0  0
    3.0789   -1.0461    0.0000 H   0  0  0  0  0  0  0  0  0  0  0  0
    4.3164   -0.3316    0.0000 C   0  0  0  0  0  0  0  0  0  0  0  0
    3.9039    0.3829    0.0000 H   0  0  0  0  0  0  0  0  0  0  0  0
    5.1414   -0.3316    0.0000 C   0  0  0  0  0  0  0  0  0  0  0  0
    5.5539    0.3829    0.0000 H   0  0  0  0  0  0  0  0  0  0  0  0
    5.5539   -1.0461    0.0000 C   0  0  0  0  0  0  0  0  0  0  0  0
    6.3789   -1.0461    0.0000 C   0  0  0  0  0  0  0  0  0  0  0  0
    6.7914   -0.3316    0.0000 C   0  0  0  0  0  0  0  0  0  0  0  0
    7.5059   -0.7441    0.0000 H   0  0  0  0  0  0  0  0  0  0  0  0
    7.2039    0.3829    0.0000 H   0  0  0  0  0  0  0  0  0  0  0  0
    6.0770    0.0809    0.0000 H   0  0  0  0  0  0  0  0  0  0  0  0
    6.4269   -1.8697    0.0000 H   0  0  0  0  0  0  0  0  0  0  0  0
    7.0682   -1.4994    0.0000 H   0  0  0  0  0  0  0  0  0  0  0  0
    5.1414   -1.7605    0.0000 C   0  0  0  0  0  0  0  0  0  0  0  0
    5.5539   -2.4750    0.0000 H   0  0  0  0  0  0  0  0  0  0  0  0
    4.3164   -3.1895    0.0000 H   0  0  0  0  0  0  0  0  0  0  0  0
    3.0789   -3.9039    0.0000 C   0  0  0  0  0  0  0  0  0  0  0  0
    3.9039   -3.9039    0.0000 C   0  0  0  0  0  0  0  0  0  0  0  0
    3.4914   -3.1895    0.0000 H   0  0  0  0  0  0  0  0  0  0  0  0
    4.3164   -4.6184    0.0000 C   0  0  0  0  0  0  0  0  0  0  0  0
    5.1414   -4.6184    0.0000 H   0  0  0  0  0  0  0  0  0  0  0  0
    3.9039   -5.3329    0.0000 C   0  0  0  0  0  0  0  0  0  0  0  0
    4.3164   -6.0474    0.0000 H   0  0  0  0  0  0  0  0  0  0  0  0
    3.0789   -5.3329    0.0000 N   0  0  0  0  0  0  0  0  0  0  0  0
    2.6664   -4.6184    0.0000 C   0  0  0  0  0  0  0  0  0  0  0  0
    3.4914   -4.6184    0.0000 H   0  0  0  0  0  0  0  0  0  0  0  0
    2.2539   -2.4750    0.0000 H   0  0  0  0  0  0  0  0  0  0  0  0
    0.1914   -3.1895    0.0000 H   0  0  0  0  0  0  0  0  0  0  0  0
    0.6039   -1.0461    0.0000 H   0  0  0  0  0  0  0  0  0  0  0  0
   -0.6336   -1.7605    0.0000 H   0  0  0  0  0  0  0  0  0  0  0  0
  1  2  2  0  0  0  0
  2  3  1  0  0  0  0
  3  4  2  0  0  0  0
  3  5  1  0  0  0  0
  5  6  1  0  0  0  0
  6  7  2  0  0  0  0
  7  8  1  0  0  0  0
  7  9  1  0  0  0  0
  9 10  1  0  0  0  0
  9 11  2  0  0  0  0
 11 12  1  0  0  0  0
 12 13  1  0  0  0  0
 13 14  1  0  0  0  0
 13 15  1  0  0  0  0
 13 16  1  0  0  0  0
 12 17  1  0  0  0  0
 17 18  1  0  0  0  0
 18 19  1  0  0  0  0
 18 20  1  0  0  0  0
 18 21  1  0  0  0  0
 12 22  1  0  0  0  0
 11 23  1  0  0  0  0
 23 24  1  0  0  0  0
 23 25  2  0  0  0  0
  6 25  1  0  0  0  0
 25 26  1  0  0  0  0
  5 27  1  0  0  0  0
 27 28  1  0  0  0  0
 28 29  2  0  0  0  0
 28 30  1  0  0  0  0
 30 31  1  0  0  0  0
 31 32  2  0  0  0  0
 32 33  1  0  0  0  0
 32 34  1  0  0  0  0
 34 35  1  0  0  0  0
 34 36  2  0  0  0  0
 36 37  1  0  0  0  0
 36 38  1  0  0  0  0
 38 39  1  0  0  0  0
 39 40  1  0  0  0  0
 40 41  1  0  0  0  0
 40 42  1  0  0  0  0
 40 43  1  0  0  0  0
 39 44  1  0  0  0  0
 39 45  1  0  0  0  0
 38 46  2  0  0  0  0
 31 46  1  0  0  0  0
 46 47  1  0  0  0  0
 30 48  1  0  0  0  0
 27 49  1  0  0  0  0
 49 50  2  0  0  0  0
 50 51  1  0  0  0  0
 50 52  1  0  0  0  0
 52 53  1  0  0  0  0
 52 54  2  0  0  0  0
 54 55  1  0  0  0  0
 54 56  1  0  0  0  0
 56 57  2  0  0  0  0
 49 57  1  0  0  0  0
 57 58  1  0  0  0  0
 27 59  1  0  0  0  0
  2 60  1  0  0  0  0
  1 61  1  0  0  0  0
  1 62  1  0  0  0  0
M  END
> <Potency>
66.3870347492245

> <pIC50>
4.1779167291661405

> <Outcome>
Inactive

> <is_active>
0

$$$$

  Mrv1921 08232120312D          

 56 57  0  0  0  0            999 V2000
    0.0000   -2.4750    0.0000 C   0  0  0  0  0  0  0  0  0  0  0  0
    0.7145   -2.8875    0.0000 C   0  0  0  0  0  0  0  0  0  0  0  0
    1.4289   -2.4750    0.0000 C   0  0  0  0  0  0  0  0  0  0  0  0
    1.4289   -1.6500    0.0000 O   0  0  0  0  0  0  0  0  0  0  0  0
    2.1434   -2.8875    0.0000 N   0  0  0  0  0  0  0  0  0  0  0  0
    2.1434   -3.7125    0.0000 C   0  0  0  0  0  0  0  0  0  0  0  0
    2.8109   -4.1974    0.0000 C   0  0  0  0  0  0  0  0  0  0  0  0
    3.4631   -4.7026    0.0000 H   0  0  0  0  0  0  0  0  0  0  0  0
    2.5559   -4.9820    0.0000 C   0  0  0  0  0  0  0  0  0  0  0  0
    3.0408   -5.6495    0.0000 C   0  0  0  0  0  0  0  0  0  0  0  0
    3.5258   -6.3169    0.0000 C   0  0  0  0  0  0  0  0  0  0  0  0
    2.8583   -6.8018    0.0000 H   0  0  0  0  0  0  0  0  0  0  0  0
    4.0107   -6.9844    0.0000 H   0  0  0  0  0  0  0  0  0  0  0  0
    4.1932   -5.8320    0.0000 H   0  0  0  0  0  0  0  0  0  0  0  0
    3.7083   -5.1646    0.0000 C   0  0  0  0  0  0  0  0  0  0  0  0
    4.5181   -5.3221    0.0000 H   0  0  0  0  0  0  0  0  0  0  0  0
    4.4081   -4.7277    0.0000 H   0  0  0  0  0  0  0  0  0  0  0  0
    3.9223   -4.3678    0.0000 H   0  0  0  0  0  0  0  0  0  0  0  0
    2.3734   -6.1344    0.0000 C   0  0  0  0  0  0  0  0  0  0  0  0
    2.1808   -5.3322    0.0000 H   0  0  0  0  0  0  0  0  0  0  0  0
    1.5586   -6.0053    0.0000 H   0  0  0  0  0  0  0  0  0  0  0  0
    1.9423   -6.8378    0.0000 H   0  0  0  0  0  0  0  0  0  0  0  0
    1.7309   -4.9820    0.0000 O   0  0  0  0  0  0  0  0  0  0  0  0
    1.4760   -4.1974    0.0000 N   0  0  0  0  0  0  0  0  0  0  0  0
    2.8579   -2.4750    0.0000 C   0  0  0  0  0  0  0  0  0  0  0  0
    2.8579   -1.6500    0.0000 C   0  0  0  0  0  0  0  0  0  0  0  0
    2.1434   -1.2375    0.0000 O   0  0  0  0  0  0  0  0  0  0  0  0
    3.5724   -1.2375    0.0000 N   0  0  0  0  0  0  0  0  0  0  0  0
    3.5724   -0.4125    0.0000 C   0  0  0  0  0  0  0  0  0  0  0  0
    3.5724    0.4125    0.0000 C   0  0  0  0  0  0  0  0  0  0  0  0
    4.3974    0.4125    0.0000 H   0  0  0  0  0  0  0  0  0  0  0  0
    3.5724    1.2375    0.0000 H   0  0  0  0  0  0  0  0  0  0  0  0
    2.7474    0.4125    0.0000 H   0  0  0  0  0  0  0  0  0  0  0  0
    4.3974   -0.4125    0.0000 C   0  0  0  0  0  0  0  0  0  0  0  0
    4.0816   -1.1747    0.0000 H   0  0  0  0  0  0  0  0  0  0  0  0
    4.9807   -0.9959    0.0000 H   0  0  0  0  0  0  0  0  0  0  0  0
    5.1596   -0.0968    0.0000 H   0  0  0  0  0  0  0  0  0  0  0  0
    2.7474   -0.4125    0.0000 C   0  0  0  0  0  0  0  0  0  0  0  0
    1.9852   -0.0968    0.0000 H   0  0  0  0  0  0  0  0  0  0  0  0
    2.1640   -0.9959    0.0000 H   0  0  0  0  0  0  0  0  0  0  0  0
    3.0631   -1.1747    0.0000 H   0  0  0  0  0  0  0  0  0  0  0  0
    4.2868   -1.6500    0.0000 H   0  0  0  0  0  0  0  0  0  0  0  0
    3.5724   -2.8875    0.0000 C   0  0  0  0  0  0  0  0  0  0  0  0
    4.2868   -2.4750    0.0000 C   0  0  0  0  0  0  0  0  0  0  0  0
    3.5724   -2.0625    0.0000 H   0  0  0  0  0  0  0  0  0  0  0  0
    5.0013   -2.8875    0.0000 C   0  0  0  0  0  0  0  0  0  0  0  0
    5.7158   -2.4750    0.0000 H   0  0  0  0  0  0  0  0  0  0  0  0
    5.0013   -3.7125    0.0000 C   0  0  0  0  0  0  0  0  0  0  0  0
    5.7158   -4.1250    0.0000 H   0  0  0  0  0  0  0  0  0  0  0  0
    4.2868   -4.1250    0.0000 N   0  0  0  0  0  0  0  0  0  0  0  0
    3.5724   -3.7125    0.0000 C   0  0  0  0  0  0  0  0  0  0  0  0
    2.8491   -3.3156    0.0000 H   0  0  0  0  0  0  0  0  0  0  0  0
    2.1434   -2.0625    0.0000 H   0  0  0  0  0  0  0  0  0  0  0  0
    0.7145   -3.7125    0.0000 H   0  0  0  0  0  0  0  0  0  0  0  0
    0.0000   -1.6500    0.0000 H   0  0  0  0  0  0  0  0  0  0  0  0
   -0.7145   -2.8875    0.0000 H   0  0  0  0  0  0  0  0  0  0  0  0
  1  2  2  0  0  0  0
  2  3  1  0  0  0  0
  3  4  2  0  0  0  0
  3  5  1  0  0  0  0
  5  6  1  0  0  0  0
  6  7  1  0  0  0  0
  7  8  1  0  0  0  0
  7  9  2  0  0  0  0
  9 10  1  0  0  0  0
 10 11  1  0  0  0  0
 11 12  1  0  0  0  0
 11 13  1  0  0  0  0
 11 14  1  0  0  0  0
 10 15  1  0  0  0  0
 15 16  1  0  0  0  0
 15 17  1  0  0  0  0
 15 18  1  0  0  0  0
 10 19  1  0  0  0  0
 19 20  1  0  0  0  0
 19 21  1  0  0  0  0
 19 22  1  0  0  0  0
  9 23  1  0  0  0  0
 23 24  1  0  0  0  0
  6 24  2  0  0  0  0
  5 25  1  0  0  0  0
 25 26  1  0  0  0  0
 26 27  2  0  0  0  0
 26 28  1  0  0  0  0
 28 29  1  0  0  0  0
 29 30  1  0  0  0  0
 30 31  1  0  0  0  0
 30 32  1  0  0  0  0
 30 33  1  0  0  0  0
 29 34  1  0  0  0  0
 34 35  1  0  0  0  0
 34 36  1  0  0  0  0
 34 37  1  0  0  0  0
 29 38  1  0  0  0  0
 38 39  1  0  0  0  0
 38 40  1  0  0  0  0
 38 41  1  0  0  0  0
 28 42  1  0  0  0  0
 25 43  1  0  0  0  0
 43 44  2  0  0  0  0
 44 45  1  0  0  0  0
 44 46  1  0  0  0  0
 46 47  1  0  0  0  0
 46 48  2  0  0  0  0
 48 49  1  0  0  0  0
 48 50  1  0  0  0  0
 50 51  2  0  0  0  0
 43 51  1  0  0  0  0
 51 52  1  0  0  0  0
 25 53  1  0  0  0  0
  2 54  1  0  0  0  0
  1 55  1  0  0  0  0
  1 56  1  0  0  0  0
M  END
> <Potency>
99.0

> <pIC50>
4.00436480540245

> <Outcome>
Inactive

> <is_active>
0

$$$$

  Mrv1921 08232120312D          

 53 55  0  0  0  0            999 V2000
    0.0000   -3.9039    0.0000 C   0  0  0  0  0  0  0  0  0  0  0  0
    0.4125   -3.1895    0.0000 C   0  0  0  0  0  0  0  0  0  0  0  0
    0.0000   -2.4750    0.0000 C   0  0  0  0  0  0  0  0  0  0  0  0
   -0.8250   -2.4750    0.0000 O   0  0  0  0  0  0  0  0  0  0  0  0
    0.4125   -1.7605    0.0000 N   0  0  0  0  0  0  0  0  0  0  0  0
    0.0000   -1.0461    0.0000 C   0  0  0  0  0  0  0  0  0  0  0  0
   -0.8250   -1.0461    0.0000 C   0  0  0  0  0  0  0  0  0  0  0  0
   -1.2375   -1.7605    0.0000 H   0  0  0  0  0  0  0  0  0  0  0  0
   -1.2375   -0.3316    0.0000 C   0  0  0  0  0  0  0  0  0  0  0  0
   -2.0625   -0.3316    0.0000 H   0  0  0  0  0  0  0  0  0  0  0  0
   -0.8250    0.3829    0.0000 C   0  0  0  0  0  0  0  0  0  0  0  0
   -1.2375    1.0974    0.0000 C   0  0  0  0  0  0  0  0  0  0  0  0
   -1.6500    1.8118    0.0000 F   0  0  0  0  0  0  0  0  0  0  0  0
   -1.9520    0.6849    0.0000 F   0  0  0  0  0  0  0  0  0  0  0  0
   -0.5230    1.5099    0.0000 F   0  0  0  0  0  0  0  0  0  0  0  0
    0.0000    0.3829    0.0000 C   0  0  0  0  0  0  0  0  0  0  0  0
    0.4125    1.0974    0.0000 H   0  0  0  0  0  0  0  0  0  0  0  0
    0.4125   -0.3316    0.0000 C   0  0  0  0  0  0  0  0  0  0  0  0
    0.8250   -1.0461    0.0000 H   0  0  0  0  0  0  0  0  0  0  0  0
    1.2375   -1.7605    0.0000 C   0  0  0  0  0  0  0  0  0  0  0  0
    1.6500   -2.4750    0.0000 C   0  0  0  0  0  0  0  0  0  0  0  0
    1.2375   -3.1895    0.0000 O   0  0  0  0  0  0  0  0  0  0  0  0
    2.4750   -2.4750    0.0000 N   0  0  0  0  0  0  0  0  0  0  0  0
    2.8875   -3.1895    0.0000 C   0  0  0  0  0  0  0  0  0  0  0  0
    3.7125   -3.1895    0.0000 C   0  0  0  0  0  0  0  0  0  0  0  0
    4.1250   -2.4750    0.0000 H   0  0  0  0  0  0  0  0  0  0  0  0
    4.1250   -3.9039    0.0000 C   0  0  0  0  0  0  0  0  0  0  0  0
    4.9500   -3.9039    0.0000 H   0  0  0  0  0  0  0  0  0  0  0  0
    3.7125   -4.6184    0.0000 C   0  0  0  0  0  0  0  0  0  0  0  0
    4.1250   -5.3329    0.0000 O   0  0  0  0  0  0  0  0  0  0  0  0
    4.9500   -5.3329    0.0000 C   0  0  0  0  0  0  0  0  0  0  0  0
    4.9500   -6.1579    0.0000 H   0  0  0  0  0  0  0  0  0  0  0  0
    5.7750   -5.3329    0.0000 H   0  0  0  0  0  0  0  0  0  0  0  0
    4.9500   -4.5079    0.0000 H   0  0  0  0  0  0  0  0  0  0  0  0
    2.8875   -4.6184    0.0000 C   0  0  0  0  0  0  0  0  0  0  0  0
    2.4750   -5.3329    0.0000 H   0  0  0  0  0  0  0  0  0  0  0  0
    2.4750   -3.9039    0.0000 C   0  0  0  0  0  0  0  0  0  0  0  0
    1.6500   -3.9039    0.0000 H   0  0  0  0  0  0  0  0  0  0  0  0
    3.1895   -2.0625    0.0000 H   0  0  0  0  0  0  0  0  0  0  0  0
    1.6500   -1.0461    0.0000 C   0  0  0  0  0  0  0  0  0  0  0  0
    1.2375   -0.3316    0.0000 C   0  0  0  0  0  0  0  0  0  0  0  0
    0.8250    0.3829    0.0000 H   0  0  0  0  0  0  0  0  0  0  0  0
    1.6500    0.3829    0.0000 C   0  0  0  0  0  0  0  0  0  0  0  0
    1.6500    1.2079    0.0000 H   0  0  0  0  0  0  0  0  0  0  0  0
    2.4750    0.3829    0.0000 C   0  0  0  0  0  0  0  0  0  0  0  0
    2.8875    1.0974    0.0000 H   0  0  0  0  0  0  0  0  0  0  0  0
    2.8875   -0.3316    0.0000 N   0  0  0  0  0  0  0  0  0  0  0  0
    2.4750   -1.0461    0.0000 C   0  0  0  0  0  0  0  0  0  0  0  0
    3.1895   -1.4586    0.0000 H   0  0  0  0  0  0  0  0  0  0  0  0
    2.0625   -1.7605    0.0000 H   0  0  0  0  0  0  0  0  0  0  0  0
    0.8250   -2.4750    0.0000 H   0  0  0  0  0  0  0  0  0  0  0  0
   -0.8250   -3.9039    0.0000 H   0  0  0  0  0  0  0  0  0  0  0  0
    0.4125   -4.6184    0.0000 H   0  0  0  0  0  0  0  0  0  0  0  0
  1  2  2  0  0  0  0
  2  3  1  0  0  0  0
  3  4  2  0  0  0  0
  3  5  1  0  0  0  0
  5  6  1  0  0  0  0
  6  7  2  0  0  0  0
  7  8  1  0  0  0  0
  7  9  1  0  0  0  0
  9 10  1  0  0  0  0
  9 11  2  0  0  0  0
 11 12  1  0  0  0  0
 12 13  1  0  0  0  0
 12 14  1  0  0  0  0
 12 15  1  0  0  0  0
 11 16  1  0  0  0  0
 16 17  1  0  0  0  0
 16 18  2  0  0  0  0
  6 18  1  0  0  0  0
 18 19  1  0  0  0  0
  5 20  1  0  0  0  0
 20 21  1  0  0  0  0
 21 22  2  0  0  0  0
 21 23  1  0  0  0  0
 23 24  1  0  0  0  0
 24 25  2  0  0  0  0
 25 26  1  0  0  0  0
 25 27  1  0  0  0  0
 27 28  1  0  0  0  0
 27 29  2  0  0  0  0
 29 30  1  0  0  0  0
 30 31  1  0  0  0  0
 31 32  1  0  0  0  0
 31 33  1  0  0  0  0
 31 34  1  0  0  0  0
 29 35  1  0  0  0  0
 35 36  1  0  0  0  0
 35 37  2  0  0  0  0
 24 37  1  0  0  0  0
 37 38  1  0  0  0  0
 23 39  1  0  0  0  0
 20 40  1  0  0  0  0
 40 41  2  0  0  0  0
 41 42  1  0  0  0  0
 41 43  1  0  0  0  0
 43 44  1  0  0  0  0
 43 45  2  0  0  0  0
 45 46  1  0  0  0  0
 45 47  1  0  0  0  0
 47 48  2  0  0  0  0
 40 48  1  0  0  0  0
 48 49  1  0  0  0  0
 20 50  1  0  0  0  0
  2 51  1  0  0  0  0
  1 52  1  0  0  0  0
  1 53  1  0  0  0  0
M  END
> <Potency>
45.9956728166022

> <pIC50>
4.33728302397643

> <Outcome>
Inactive

> <is_active>
0

$$$$

  Mrv1921 08232120312D          

 54 57  0  0  0  0            999 V2000
    0.1914   -0.9355    0.0000 C   0  0  0  0  0  0  0  0  0  0  0  0
    0.6039   -1.6500    0.0000 C   0  0  0  0  0  0  0  0  0  0  0  0
    1.4289   -1.6500    0.0000 C   0  0  0  0  0  0  0  0  0  0  0  0
    1.8414   -0.9355    0.0000 O   0  0  0  0  0  0  0  0  0  0  0  0
    1.8414   -2.3645    0.0000 N   0  0  0  0  0  0  0  0  0  0  0  0
    1.4289   -3.0789    0.0000 C   0  0  0  0  0  0  0  0  0  0  0  0
    1.8414   -3.7934    0.0000 C   0  0  0  0  0  0  0  0  0  0  0  0
    2.2539   -3.0789    0.0000 H   0  0  0  0  0  0  0  0  0  0  0  0
    1.4289   -4.5079    0.0000 C   0  0  0  0  0  0  0  0  0  0  0  0
    1.8414   -5.2224    0.0000 H   0  0  0  0  0  0  0  0  0  0  0  0
    0.6039   -4.5079    0.0000 C   0  0  0  0  0  0  0  0  0  0  0  0
    0.0519   -5.1210    0.0000 N   0  0  0  0  0  0  0  0  0  0  0  0
   -0.7018   -4.7854    0.0000 C   0  0  0  0  0  0  0  0  0  0  0  0
   -0.6155   -3.9649    0.0000 S   0  0  0  0  0  0  0  0  0  0  0  0
    0.1914   -3.7934    0.0000 C   0  0  0  0  0  0  0  0  0  0  0  0
    0.6039   -3.0789    0.0000 C   0  0  0  0  0  0  0  0  0  0  0  0
    1.0164   -2.3645    0.0000 H   0  0  0  0  0  0  0  0  0  0  0  0
   -1.4162   -5.1979    0.0000 H   0  0  0  0  0  0  0  0  0  0  0  0
    2.6664   -2.3645    0.0000 C   0  0  0  0  0  0  0  0  0  0  0  0
    3.0789   -1.6500    0.0000 C   0  0  0  0  0  0  0  0  0  0  0  0
    2.6664   -0.9355    0.0000 O   0  0  0  0  0  0  0  0  0  0  0  0
    3.9039   -1.6500    0.0000 N   0  0  0  0  0  0  0  0  0  0  0  0
    4.3164   -0.9355    0.0000 C   0  0  0  0  0  0  0  0  0  0  0  0
    3.9039   -0.2211    0.0000 C   0  0  0  0  0  0  0  0  0  0  0  0
    3.0789   -0.2211    0.0000 H   0  0  0  0  0  0  0  0  0  0  0  0
    4.3164    0.4934    0.0000 C   0  0  0  0  0  0  0  0  0  0  0  0
    3.9039    1.2079    0.0000 H   0  0  0  0  0  0  0  0  0  0  0  0
    5.1414    0.4934    0.0000 C   0  0  0  0  0  0  0  0  0  0  0  0
    5.5539    1.2079    0.0000 H   0  0  0  0  0  0  0  0  0  0  0  0
    5.5539   -0.2211    0.0000 C   0  0  0  0  0  0  0  0  0  0  0  0
    6.3789   -0.2211    0.0000 C   0  0  0  0  0  0  0  0  0  0  0  0
    6.7914    0.4934    0.0000 C   0  0  0  0  0  0  0  0  0  0  0  0
    7.5059    0.0809    0.0000 H   0  0  0  0  0  0  0  0  0  0  0  0
    7.2039    1.2079    0.0000 H   0  0  0  0  0  0  0  0  0  0  0  0
    6.0770    0.9059    0.0000 H   0  0  0  0  0  0  0  0  0  0  0  0
    6.4269   -1.0447    0.0000 H   0  0  0  0  0  0  0  0  0  0  0  0
    7.0682   -0.6744    0.0000 H   0  0  0  0  0  0  0  0  0  0  0  0
    5.1414   -0.9355    0.0000 C   0  0  0  0  0  0  0  0  0  0  0  0
    5.5539   -1.6500    0.0000 H   0  0  0  0  0  0  0  0  0  0  0  0
    4.3164   -2.3645    0.0000 H   0  0  0  0  0  0  0  0  0  0  0  0
    3.0789   -3.0789    0.0000 C   0  0  0  0  0  0  0  0  0  0  0  0
    3.9039   -3.0789    0.0000 C   0  0  0  0  0  0  0  0  0  0  0  0
    3.4914   -2.3645    0.0000 H   0  0  0  0  0  0  0  0  0  0  0  0
    4.3164   -3.7934    0.0000 C   0  0  0  0  0  0  0  0  0  0  0  0
    5.1414   -3.7934    0.0000 H   0  0  0  0  0  0  0  0  0  0  0  0
    3.9039   -4.5079    0.0000 C   0  0  0  0  0  0  0  0  0  0  0  0
    4.3164   -5.2224    0.0000 H   0  0  0  0  0  0  0  0  0  0  0  0
    3.0789   -4.5079    0.0000 N   0  0  0  0  0  0  0  0  0  0  0  0
    2.6664   -3.7934    0.0000 C   0  0  0  0  0  0  0  0  0  0  0  0
    3.4914   -3.7934    0.0000 H   0  0  0  0  0  0  0  0  0  0  0  0
    2.2539   -1.6500    0.0000 H   0  0  0  0  0  0  0  0  0  0  0  0
    0.1914   -2.3645    0.0000 H   0  0  0  0  0  0  0  0  0  0  0  0
    0.6039   -0.2211    0.0000 H   0  0  0  0  0  0  0  0  0  0  0  0
   -0.6336   -0.9355    0.0000 H   0  0  0  0  0  0  0  0  0  0  0  0
  1  2  2  0  0  0  0
  2  3  1  0  0  0  0
  3  4  2  0  0  0  0
  3  5  1  0  0  0  0
  5  6  1  0  0  0  0
  6  7  2  0  0  0  0
  7  8  1  0  0  0  0
  7  9  1  0  0  0  0
  9 10  1  0  0  0  0
  9 11  2  0  0  0  0
 11 12  1  0  0  0  0
 12 13  2  0  0  0  0
 13 14  1  0  0  0  0
 14 15  1  0  0  0  0
 11 15  1  0  0  0  0
 15 16  2  0  0  0  0
  6 16  1  0  0  0  0
 16 17  1  0  0  0  0
 13 18  1  0  0  0  0
  5 19  1  0  0  0  0
 19 20  1  0  0  0  0
 20 21  2  0  0  0  0
 20 22  1  0  0  0  0
 22 23  1  0  0  0  0
 23 24  2  0  0  0  0
 24 25  1  0  0  0  0
 24 26  1  0  0  0  0
 26 27  1  0  0  0  0
 26 28  2  0  0  0  0
 28 29  1  0  0  0  0
 28 30  1  0  0  0  0
 30 31  1  0  0  0  0
 31 32  1  0  0  0  0
 32 33  1  0  0  0  0
 32 34  1  0  0  0  0
 32 35  1  0  0  0  0
 31 36  1  0  0  0  0
 31 37  1  0  0  0  0
 30 38  2  0  0  0  0
 23 38  1  0  0  0  0
 38 39  1  0  0  0  0
 22 40  1  0  0  0  0
 19 41  1  0  0  0  0
 41 42  2  0  0  0  0
 42 43  1  0  0  0  0
 42 44  1  0  0  0  0
 44 45  1  0  0  0  0
 44 46  2  0  0  0  0
 46 47  1  0  0  0  0
 46 48  1  0  0  0  0
 48 49  2  0  0  0  0
 41 49  1  0  0  0  0
 49 50  1  0  0  0  0
 19 51  1  0  0  0  0
  2 52  1  0  0  0  0
  1 53  1  0  0  0  0
  1 54  1  0  0  0  0
M  END
> <Potency>
59.0215327740357

> <pIC50>
4.228989516173539

> <Outcome>
Inactive

> <is_active>
0

$$$$

  Mrv1921 08232120312D          

 58 60  0  0  0  0            999 V2000
    0.0000   -3.9039    0.0000 C   0  0  0  0  0  0  0  0  0  0  0  0
    0.4125   -3.1895    0.0000 C   0  0  0  0  0  0  0  0  0  0  0  0
    0.0000   -2.4750    0.0000 C   0  0  0  0  0  0  0  0  0  0  0  0
   -0.8250   -2.4750    0.0000 O   0  0  0  0  0  0  0  0  0  0  0  0
    0.4125   -1.7605    0.0000 N   0  0  0  0  0  0  0  0  0  0  0  0
    0.0000   -1.0461    0.0000 C   0  0  0  0  0  0  0  0  0  0  0  0
   -0.8250   -1.0461    0.0000 C   0  0  0  0  0  0  0  0  0  0  0  0
   -1.2375   -1.7605    0.0000 H   0  0  0  0  0  0  0  0  0  0  0  0
   -1.2375   -0.3316    0.0000 C   0  0  0  0  0  0  0  0  0  0  0  0
   -2.0625   -0.3316    0.0000 H   0  0  0  0  0  0  0  0  0  0  0  0
   -0.8250    0.3829    0.0000 C   0  0  0  0  0  0  0  0  0  0  0  0
   -1.2375    1.0974    0.0000 C   0  0  0  0  0  0  0  0  0  0  0  0
   -1.6500    1.8118    0.0000 F   0  0  0  0  0  0  0  0  0  0  0  0
   -1.9520    0.6849    0.0000 F   0  0  0  0  0  0  0  0  0  0  0  0
   -0.5230    1.5099    0.0000 F   0  0  0  0  0  0  0  0  0  0  0  0
    0.0000    0.3829    0.0000 C   0  0  0  0  0  0  0  0  0  0  0  0
    0.4125    1.0974    0.0000 H   0  0  0  0  0  0  0  0  0  0  0  0
    0.4125   -0.3316    0.0000 C   0  0  0  0  0  0  0  0  0  0  0  0
    0.8250   -1.0461    0.0000 H   0  0  0  0  0  0  0  0  0  0  0  0
    1.2375   -1.7605    0.0000 C   0  0  0  0  0  0  0  0  0  0  0  0
    1.6500   -2.4750    0.0000 C   0  0  0  0  0  0  0  0  0  0  0  0
    1.2375   -3.1895    0.0000 O   0  0  0  0  0  0  0  0  0  0  0  0
    2.4750   -2.4750    0.0000 N   0  0  0  0  0  0  0  0  0  0  0  0
    2.8875   -3.1895    0.0000 C   0  0  0  0  0  0  0  0  0  0  0  0
    3.7125   -3.1895    0.0000 C   0  0  0  0  0  0  0  0  0  0  0  0
    4.1250   -2.4750    0.0000 C   0  0  0  0  0  0  0  0  0  0  0  0
    4.8395   -2.8875    0.0000 H   0  0  0  0  0  0  0  0  0  0  0  0
    4.5375   -1.7605    0.0000 H   0  0  0  0  0  0  0  0  0  0  0  0
    3.4105   -2.0625    0.0000 H   0  0  0  0  0  0  0  0  0  0  0  0
    4.1250   -3.9039    0.0000 C   0  0  0  0  0  0  0  0  0  0  0  0
    4.9500   -3.9039    0.0000 H   0  0  0  0  0  0  0  0  0  0  0  0
    3.7125   -4.6184    0.0000 C   0  0  0  0  0  0  0  0  0  0  0  0
    4.1250   -5.3329    0.0000 H   0  0  0  0  0  0  0  0  0  0  0  0
    2.8875   -4.6184    0.0000 C   0  0  0  0  0  0  0  0  0  0  0  0
    2.4750   -5.3329    0.0000 H   0  0  0  0  0  0  0  0  0  0  0  0
    2.4750   -3.9039    0.0000 C   0  0  0  0  0  0  0  0  0  0  0  0
    1.6500   -3.9039    0.0000 C   0  0  0  0  0  0  0  0  0  0  0  0
    1.2375   -4.6184    0.0000 C   0  0  0  0  0  0  0  0  0  0  0  0
    0.8250   -5.3329    0.0000 H   0  0  0  0  0  0  0  0  0  0  0  0
    1.6500   -5.3329    0.0000 H   0  0  0  0  0  0  0  0  0  0  0  0
    2.0625   -4.6184    0.0000 H   0  0  0  0  0  0  0  0  0  0  0  0
    2.0625   -3.1895    0.0000 H   0  0  0  0  0  0  0  0  0  0  0  0
    0.8250   -3.9039    0.0000 H   0  0  0  0  0  0  0  0  0  0  0  0
    3.1895   -2.0625    0.0000 H   0  0  0  0  0  0  0  0  0  0  0  0
    1.6500   -1.0461    0.0000 C   0  0  0  0  0  0  0  0  0  0  0  0
    1.2375   -0.3316    0.0000 C   0  0  0  0  0  0  0  0  0  0  0  0
    0.8250    0.3829    0.0000 H   0  0  0  0  0  0  0  0  0  0  0  0
    1.6500    0.3829    0.0000 C   0  0  0  0  0  0  0  0  0  0  0  0
    1.6500    1.2079    0.0000 H   0  0  0  0  0  0  0  0  0  0  0  0
    2.4750    0.3829    0.0000 C   0  0  0  0  0  0  0  0  0  0  0  0
    2.8875    1.0974    0.0000 H   0  0  0  0  0  0  0  0  0  0  0  0
    2.8875   -0.3316    0.0000 N   0  0  0  0  0  0  0  0  0  0  0  0
    2.4750   -1.0461    0.0000 C   0  0  0  0  0  0  0  0  0  0  0  0
    3.1895   -1.4586    0.0000 H   0  0  0  0  0  0  0  0  0  0  0  0
    2.0625   -1.7605    0.0000 H   0  0  0  0  0  0  0  0  0  0  0  0
    0.8250   -2.4750    0.0000 H   0  0  0  0  0  0  0  0  0  0  0  0
   -0.8250   -3.9039    0.0000 H   0  0  0  0  0  0  0  0  0  0  0  0
    0.4125   -4.6184    0.0000 H   0  0  0  0  0  0  0  0  0  0  0  0
  1  2  2  0  0  0  0
  2  3  1  0  0  0  0
  3  4  2  0  0  0  0
  3  5  1  0  0  0  0
  5  6  1  0  0  0  0
  6  7  2  0  0  0  0
  7  8  1  0  0  0  0
  7  9  1  0  0  0  0
  9 10  1  0  0  0  0
  9 11  2  0  0  0  0
 11 12  1  0  0  0  0
 12 13  1  0  0  0  0
 12 14  1  0  0  0  0
 12 15  1  0  0  0  0
 11 16  1  0  0  0  0
 16 17  1  0  0  0  0
 16 18  2  0  0  0  0
  6 18  1  0  0  0  0
 18 19  1  0  0  0  0
  5 20  1  0  0  0  0
 20 21  1  0  0  0  0
 21 22  2  0  0  0  0
 21 23  1  0  0  0  0
 23 24  1  0  0  0  0
 24 25  2  0  0  0  0
 25 26  1  0  0  0  0
 26 27  1  0  0  0  0
 26 28  1  0  0  0  0
 26 29  1  0  0  0  0
 25 30  1  0  0  0  0
 30 31  1  0  0  0  0
 30 32  2  0  0  0  0
 32 33  1  0  0  0  0
 32 34  1  0  0  0  0
 34 35  1  0  0  0  0
 34 36  2  0  0  0  0
 24 36  1  0  0  0  0
 36 37  1  0  0  0  0
 37 38  1  0  0  0  0
 38 39  1  0  0  0  0
 38 40  1  0  0  0  0
 38 41  1  0  0  0  0
 37 42  1  0  0  0  0
 37 43  1  0  0  0  0
 23 44  1  0  0  0  0
 20 45  1  0  0  0  0
 45 46  2  0  0  0  0
 46 47  1  0  0  0  0
 46 48  1  0  0  0  0
 48 49  1  0  0  0  0
 48 50  2  0  0  0  0
 50 51  1  0  0  0  0
 50 52  1  0  0  0  0
 52 53  2  0  0  0  0
 45 53  1  0  0  0  0
 53 54  1  0  0  0  0
 20 55  1  0  0  0  0
  2 56  1  0  0  0  0
  1 57  1  0  0  0  0
  1 58  1  0  0  0  0
M  END
> <Potency>
97.7888349071212

> <pIC50>
4.009710728188183

> <Outcome>
Inactive

> <is_active>
0

$$$$

  Mrv1921 08232120312D          

 44 47  0  0  0  0            999 V2000
    2.1434   -2.8875    0.0000 O   0  0  0  0  0  0  0  0  0  0  0  0
    1.4289   -2.4750    0.0000 C   0  0  0  0  0  0  0  0  0  0  0  0
    1.4289   -1.6500    0.0000 C   0  0  0  0  0  0  0  0  0  0  0  0
    0.7145   -1.2375    0.0000 C   0  0  0  0  0  0  0  0  0  0  0  0
    0.0000   -1.6500    0.0000 H   0  0  0  0  0  0  0  0  0  0  0  0
    0.7145   -0.4125    0.0000 C   0  0  0  0  0  0  0  0  0  0  0  0
    0.0000    0.0000    0.0000 O   0  0  0  0  0  0  0  0  0  0  0  0
    1.4289    0.0000    0.0000 N   0  0  0  0  0  0  0  0  0  0  0  0
    1.4289    0.8250    0.0000 H   0  0  0  0  0  0  0  0  0  0  0  0
    2.1434   -0.4125    0.0000 C   0  0  0  0  0  0  0  0  0  0  0  0
    2.8579    0.0000    0.0000 C   0  0  0  0  0  0  0  0  0  0  0  0
    3.5724   -0.4125    0.0000 C   0  0  0  0  0  0  0  0  0  0  0  0
    3.5724   -1.2375    0.0000 C   0  0  0  0  0  0  0  0  0  0  0  0
    2.8579   -1.6500    0.0000 C   0  0  0  0  0  0  0  0  0  0  0  0
    2.8579   -2.4750    0.0000 H   0  0  0  0  0  0  0  0  0  0  0  0
    2.1434   -1.2375    0.0000 C   0  0  0  0  0  0  0  0  0  0  0  0
    4.2868   -1.6500    0.0000 H   0  0  0  0  0  0  0  0  0  0  0  0
    4.2868   -0.0000    0.0000 H   0  0  0  0  0  0  0  0  0  0  0  0
    2.8579    0.8250    0.0000 H   0  0  0  0  0  0  0  0  0  0  0  0
    0.7145   -2.8875    0.0000 N   0  0  0  0  0  0  0  0  0  0  0  0
    0.7145   -3.7125    0.0000 C   0  0  0  0  0  0  0  0  0  0  0  0
    1.1678   -4.4018    0.0000 H   0  0  0  0  0  0  0  0  0  0  0  0
    1.5381   -3.7605    0.0000 H   0  0  0  0  0  0  0  0  0  0  0  0
    0.0000   -4.1250    0.0000 C   0  0  0  0  0  0  0  0  0  0  0  0
   -0.3703   -4.8622    0.0000 H   0  0  0  0  0  0  0  0  0  0  0  0
    0.3703   -4.8622    0.0000 H   0  0  0  0  0  0  0  0  0  0  0  0
   -0.7145   -3.7125    0.0000 N   0  0  0  0  0  0  0  0  0  0  0  0
   -1.4289   -4.1250    0.0000 C   0  0  0  0  0  0  0  0  0  0  0  0
   -1.4289   -4.9500    0.0000 C   0  0  0  0  0  0  0  0  0  0  0  0
   -0.7145   -5.3625    0.0000 H   0  0  0  0  0  0  0  0  0  0  0  0
   -2.1434   -5.3625    0.0000 C   0  0  0  0  0  0  0  0  0  0  0  0
   -2.1434   -6.1875    0.0000 H   0  0  0  0  0  0  0  0  0  0  0  0
   -2.8579   -4.9500    0.0000 C   0  0  0  0  0  0  0  0  0  0  0  0
   -3.5724   -5.3625    0.0000 H   0  0  0  0  0  0  0  0  0  0  0  0
   -2.8579   -4.1250    0.0000 C   0  0  0  0  0  0  0  0  0  0  0  0
   -3.5724   -3.7125    0.0000 H   0  0  0  0  0  0  0  0  0  0  0  0
   -2.1434   -3.7125    0.0000 C   0  0  0  0  0  0  0  0  0  0  0  0
   -2.1434   -2.8875    0.0000 H   0  0  0  0  0  0  0  0  0  0  0  0
   -0.7145   -2.8875    0.0000 C   0  0  0  0  0  0  0  0  0  0  0  0
   -1.1678   -2.1982    0.0000 H   0  0  0  0  0  0  0  0  0  0  0  0
   -1.5381   -2.8395    0.0000 H   0  0  0  0  0  0  0  0  0  0  0  0
    0.0000   -2.4750    0.0000 C   0  0  0  0  0  0  0  0  0  0  0  0
    0.7145   -2.0625    0.0000 H   0  0  0  0  0  0  0  0  0  0  0  0
    0.0000   -3.3000    0.0000 H   0  0  0  0  0  0  0  0  0  0  0  0
  1  2  2  0  0  0  0
  2  3  1  0  0  0  0
  3  4  4  0  0  0  0
  4  5  1  0  0  0  0
  4  6  4  0  0  0  0
  6  7  2  0  0  0  0
  6  8  4  0  0  0  0
  8  9  1  0  0  0  0
  8 10  4  0  0  0  0
 10 11  4  0  0  0  0
 11 12  4  0  0  0  0
 12 13  4  0  0  0  0
 13 14  4  0  0  0  0
 14 15  1  0  0  0  0
 14 16  4  0  0  0  0
  3 16  4  0  0  0  0
 10 16  4  0  0  0  0
 13 17  1  0  0  0  0
 12 18  1  0  0  0  0
 11 19  1  0  0  0  0
  2 20  1  0  0  0  0
 20 21  1  0  0  0  0
 21 22  1  0  0  0  0
 21 23  1  0  0  0  0
 21 24  1  0  0  0  0
 24 25  1  0  0  0  0
 24 26  1  0  0  0  0
 24 27  1  0  0  0  0
 27 28  1  0  0  0  0
 28 29  2  0  0  0  0
 29 30  1  0  0  0  0
 29 31  1  0  0  0  0
 31 32  1  0  0  0  0
 31 33  2  0  0  0  0
 33 34  1  0  0  0  0
 33 35  1  0  0  0  0
 35 36  1  0  0  0  0
 35 37  2  0  0  0  0
 28 37  1  0  0  0  0
 37 38  1  0  0  0  0
 27 39  1  0  0  0  0
 39 40  1  0  0  0  0
 39 41  1  0  0  0  0
 39 42  1  0  0  0  0
 20 42  1  0  0  0  0
 42 43  1  0  0  0  0
 42 44  1  0  0  0  0
M  END
> <Potency>
27.5248950634011

> <pIC50>
4.560274328068207

> <Outcome>
Inactive

> <is_active>
0

$$$$

  Mrv1921 08232120312D          

 36 37  0  0  0  0            999 V2000
    4.2868   -1.6500    0.0000 O   0  0  0  0  0  0  0  0  0  0  0  0
    3.5724   -1.2375    0.0000 C   0  0  0  0  0  0  0  0  0  0  0  0
    3.5724   -0.4125    0.0000 C   0  0  0  0  0  0  0  0  0  0  0  0
    4.2868    0.0000    0.0000 Cl  0  0  0  0  0  0  0  0  0  0  0  0
    3.1190    0.2768    0.0000 H   0  0  0  0  0  0  0  0  0  0  0  0
    2.7488   -0.3645    0.0000 H   0  0  0  0  0  0  0  0  0  0  0  0
    2.8579   -1.6500    0.0000 N   0  0  0  0  0  0  0  0  0  0  0  0
    2.8579   -2.4750    0.0000 C   0  0  0  0  0  0  0  0  0  0  0  0
    3.3112   -3.1643    0.0000 H   0  0  0  0  0  0  0  0  0  0  0  0
    3.6815   -2.5230    0.0000 H   0  0  0  0  0  0  0  0  0  0  0  0
    2.1434   -2.8875    0.0000 C   0  0  0  0  0  0  0  0  0  0  0  0
    1.7732   -3.6247    0.0000 H   0  0  0  0  0  0  0  0  0  0  0  0
    2.5137   -3.6247    0.0000 H   0  0  0  0  0  0  0  0  0  0  0  0
    1.4289   -2.4750    0.0000 N   0  0  0  0  0  0  0  0  0  0  0  0
    0.7145   -2.8875    0.0000 C   0  0  0  0  0  0  0  0  0  0  0  0
    0.0000   -2.4750    0.0000 C   0  0  0  0  0  0  0  0  0  0  0  0
   -0.7145   -2.8875    0.0000 C   0  0  0  0  0  0  0  0  0  0  0  0
   -0.7145   -3.7125    0.0000 H   0  0  0  0  0  0  0  0  0  0  0  0
   -1.4289   -2.4750    0.0000 C   0  0  0  0  0  0  0  0  0  0  0  0
   -2.1434   -2.8875    0.0000 O   0  0  0  0  0  0  0  0  0  0  0  0
   -2.8579   -2.4750    0.0000 H   0  0  0  0  0  0  0  0  0  0  0  0
   -1.4289   -1.6500    0.0000 C   0  0  0  0  0  0  0  0  0  0  0  0
   -2.1434   -1.2375    0.0000 H   0  0  0  0  0  0  0  0  0  0  0  0
   -0.7145   -1.2375    0.0000 C   0  0  0  0  0  0  0  0  0  0  0  0
   -0.7145   -0.4125    0.0000 H   0  0  0  0  0  0  0  0  0  0  0  0
    0.0000   -1.6500    0.0000 C   0  0  0  0  0  0  0  0  0  0  0  0
    0.7145   -1.2375    0.0000 O   0  0  0  0  0  0  0  0  0  0  0  0
    0.7145   -0.4125    0.0000 H   0  0  0  0  0  0  0  0  0  0  0  0
    0.3442   -3.6247    0.0000 H   0  0  0  0  0  0  0  0  0  0  0  0
    1.0847   -3.6247    0.0000 H   0  0  0  0  0  0  0  0  0  0  0  0
    1.4289   -1.6500    0.0000 C   0  0  0  0  0  0  0  0  0  0  0  0
    1.4289   -0.8250    0.0000 H   0  0  0  0  0  0  0  0  0  0  0  0
    2.1434   -2.0625    0.0000 H   0  0  0  0  0  0  0  0  0  0  0  0
    2.1434   -1.2375    0.0000 C   0  0  0  0  0  0  0  0  0  0  0  0
    2.7754   -0.7072    0.0000 H   0  0  0  0  0  0  0  0  0  0  0  0
    2.2867   -0.4250    0.0000 H   0  0  0  0  0  0  0  0  0  0  0  0
  1  2  2  0  0  0  0
  2  3  1  0  0  0  0
  3  4  1  0  0  0  0
  3  5  1  0  0  0  0
  3  6  1  0  0  0  0
  2  7  1  0  0  0  0
  7  8  1  0  0  0  0
  8  9  1  0  0  0  0
  8 10  1  0  0  0  0
  8 11  1  0  0  0  0
 11 12  1  0  0  0  0
 11 13  1  0  0  0  0
 11 14  1  0  0  0  0
 14 15  1  0  0  0  0
 15 16  1  0  0  0  0
 16 17  2  0  0  0  0
 17 18  1  0  0  0  0
 17 19  1  0  0  0  0
 19 20  1  0  0  0  0
 20 21  1  0  0  0  0
 19 22  2  0  0  0  0
 22 23  1  0  0  0  0
 22 24  1  0  0  0  0
 24 25  1  0  0  0  0
 24 26  2  0  0  0  0
 16 26  1  0  0  0  0
 26 27  1  0  0  0  0
 27 28  1  0  0  0  0
 15 29  1  0  0  0  0
 15 30  1  0  0  0  0
 14 31  1  0  0  0  0
 31 32  1  0  0  0  0
 31 33  1  0  0  0  0
 31 34  1  0  0  0  0
  7 34  1  0  0  0  0
 34 35  1  0  0  0  0
 34 36  1  0  0  0  0
M  END
> <Potency>
37.4070562914493

> <pIC50>
4.427046466799955

> <Outcome>
Inactive

> <is_active>
0

$$$$

  Mrv1921 08232120312D          

 40 41  0  0  0  0            999 V2000
    2.8579   -0.8250    0.0000 C   0  0  0  0  0  0  0  0  0  0  0  0
    2.8579   -1.6500    0.0000 C   0  0  0  0  0  0  0  0  0  0  0  0
    3.5724   -2.0625    0.0000 C   0  0  0  0  0  0  0  0  0  0  0  0
    4.2868   -1.6500    0.0000 H   0  0  0  0  0  0  0  0  0  0  0  0
    3.5724   -2.8875    0.0000 C   0  0  0  0  0  0  0  0  0  0  0  0
    4.2868   -3.3000    0.0000 H   0  0  0  0  0  0  0  0  0  0  0  0
    2.8579   -3.3000    0.0000 C   0  0  0  0  0  0  0  0  0  0  0  0
    2.8579   -4.1250    0.0000 S   0  0  0  0  0  0  0  0  0  0  0  0
    2.0329   -4.1250    0.0000 O   0  0  0  0  0  0  0  0  0  0  0  0
    3.6829   -4.1250    0.0000 O   0  0  0  0  0  0  0  0  0  0  0  0
    2.8579   -4.9500    0.0000 N   0  0  0  0  0  0  0  0  0  0  0  0
    2.1434   -5.3625    0.0000 C   0  0  0  0  0  0  0  0  0  0  0  0
    2.1434   -6.1875    0.0000 C   0  0  0  0  0  0  0  0  0  0  0  0
    2.5968   -6.8768    0.0000 H   0  0  0  0  0  0  0  0  0  0  0  0
    2.9670   -6.2355    0.0000 H   0  0  0  0  0  0  0  0  0  0  0  0
    1.4289   -6.6000    0.0000 C   0  0  0  0  0  0  0  0  0  0  0  0
    1.0587   -7.3372    0.0000 H   0  0  0  0  0  0  0  0  0  0  0  0
    1.7992   -7.3372    0.0000 H   0  0  0  0  0  0  0  0  0  0  0  0
    0.7145   -6.1875    0.0000 N   0  0  0  0  0  0  0  0  0  0  0  0
   -0.0000   -6.6000    0.0000 C   0  0  0  0  0  0  0  0  0  0  0  0
   -0.0000   -7.4250    0.0000 O   0  0  0  0  0  0  0  0  0  0  0  0
   -0.7145   -6.1875    0.0000 C   0  0  0  0  0  0  0  0  0  0  0  0
   -1.4289   -6.6000    0.0000 Cl  0  0  0  0  0  0  0  0  0  0  0  0
   -0.3442   -5.4503    0.0000 H   0  0  0  0  0  0  0  0  0  0  0  0
   -1.0847   -5.4503    0.0000 H   0  0  0  0  0  0  0  0  0  0  0  0
    0.7145   -5.3625    0.0000 C   0  0  0  0  0  0  0  0  0  0  0  0
    0.2611   -4.6732    0.0000 H   0  0  0  0  0  0  0  0  0  0  0  0
   -0.1091   -5.3145    0.0000 H   0  0  0  0  0  0  0  0  0  0  0  0
    1.4289   -4.9500    0.0000 C   0  0  0  0  0  0  0  0  0  0  0  0
    1.2857   -4.1375    0.0000 H   0  0  0  0  0  0  0  0  0  0  0  0
    0.7970   -4.4197    0.0000 H   0  0  0  0  0  0  0  0  0  0  0  0
    2.1434   -4.5375    0.0000 H   0  0  0  0  0  0  0  0  0  0  0  0
    3.5724   -5.3625    0.0000 H   0  0  0  0  0  0  0  0  0  0  0  0
    2.1434   -2.8875    0.0000 C   0  0  0  0  0  0  0  0  0  0  0  0
    1.4289   -3.3000    0.0000 H   0  0  0  0  0  0  0  0  0  0  0  0
    2.1434   -2.0625    0.0000 C   0  0  0  0  0  0  0  0  0  0  0  0
    1.4289   -1.6500    0.0000 H   0  0  0  0  0  0  0  0  0  0  0  0
    3.6829   -0.8250    0.0000 H   0  0  0  0  0  0  0  0  0  0  0  0
    2.8579    0.0000    0.0000 H   0  0  0  0  0  0  0  0  0  0  0  0
    2.0329   -0.8250    0.0000 H   0  0  0  0  0  0  0  0  0  0  0  0
  1  2  1  0  0  0  0
  2  3  2  0  0  0  0
  3  4  1  0  0  0  0
  3  5  1  0  0  0  0
  5  6  1  0  0  0  0
  5  7  2  0  0  0  0
  7  8  1  0  0  0  0
  8  9  2  0  0  0  0
  8 10  2  0  0  0  0
  8 11  1  0  0  0  0
 11 12  1  0  0  0  0
 12 13  1  0  0  0  0
 13 14  1  0  0  0  0
 13 15  1  0  0  0  0
 13 16  1  0  0  0  0
 16 17  1  0  0  0  0
 16 18  1  0  0  0  0
 16 19  1  0  0  0  0
 19 20  1  0  0  0  0
 20 21  2  0  0  0  0
 20 22  1  0  0  0  0
 22 23  1  0  0  0  0
 22 24  1  0  0  0  0
 22 25  1  0  0  0  0
 19 26  1  0  0  0  0
 26 27  1  0  0  0  0
 26 28  1  0  0  0  0
 26 29  1  0  0  0  0
 12 29  1  0  0  0  0
 29 30  1  0  0  0  0
 29 31  1  0  0  0  0
 12 32  1  0  0  0  0
 11 33  1  0  0  0  0
  7 34  1  0  0  0  0
 34 35  1  0  0  0  0
 34 36  2  0  0  0  0
  2 36  1  0  0  0  0
 36 37  1  0  0  0  0
  1 38  1  0  0  0  0
  1 39  1  0  0  0  0
  1 40  1  0  0  0  0
M  END
> <Potency>
33.5410302443085

> <pIC50>
4.474423601761343

> <Outcome>
Inactive

> <is_active>
0

$$$$

  Mrv1921 08232120312D          

 40 41  0  0  0  0            999 V2000
    0.7145   -1.2375    0.0000 C   0  0  0  0  0  0  0  0  0  0  0  0
    0.7145   -2.0625    0.0000 C   0  0  0  0  0  0  0  0  0  0  0  0
    1.4289   -2.4750    0.0000 C   0  0  0  0  0  0  0  0  0  0  0  0
    2.1434   -2.0625    0.0000 H   0  0  0  0  0  0  0  0  0  0  0  0
    1.4289   -3.3000    0.0000 C   0  0  0  0  0  0  0  0  0  0  0  0
    2.1434   -3.7125    0.0000 H   0  0  0  0  0  0  0  0  0  0  0  0
    0.7145   -3.7125    0.0000 C   0  0  0  0  0  0  0  0  0  0  0  0
    0.7145   -4.5375    0.0000 C   0  0  0  0  0  0  0  0  0  0  0  0
   -0.1105   -4.5375    0.0000 H   0  0  0  0  0  0  0  0  0  0  0  0
    0.7145   -5.3625    0.0000 H   0  0  0  0  0  0  0  0  0  0  0  0
    1.5395   -4.5375    0.0000 H   0  0  0  0  0  0  0  0  0  0  0  0
    0.0000   -3.3000    0.0000 C   0  0  0  0  0  0  0  0  0  0  0  0
   -0.7145   -3.7125    0.0000 S   0  0  0  0  0  0  0  0  0  0  0  0
   -1.1270   -2.9980    0.0000 O   0  0  0  0  0  0  0  0  0  0  0  0
   -0.3020   -4.4270    0.0000 O   0  0  0  0  0  0  0  0  0  0  0  0
   -1.4289   -4.1250    0.0000 N   0  0  0  0  0  0  0  0  0  0  0  0
   -1.4289   -4.9500    0.0000 C   0  0  0  0  0  0  0  0  0  0  0  0
   -0.9756   -5.6393    0.0000 H   0  0  0  0  0  0  0  0  0  0  0  0
   -0.6053   -4.9980    0.0000 H   0  0  0  0  0  0  0  0  0  0  0  0
   -2.1434   -5.3625    0.0000 C   0  0  0  0  0  0  0  0  0  0  0  0
   -2.5137   -6.0997    0.0000 H   0  0  0  0  0  0  0  0  0  0  0  0
   -1.7732   -6.0997    0.0000 H   0  0  0  0  0  0  0  0  0  0  0  0
   -2.8579   -4.9500    0.0000 N   0  0  0  0  0  0  0  0  0  0  0  0
   -3.5724   -5.3625    0.0000 C   0  0  0  0  0  0  0  0  0  0  0  0
   -3.5724   -6.1875    0.0000 O   0  0  0  0  0  0  0  0  0  0  0  0
   -4.2868   -4.9500    0.0000 C   0  0  0  0  0  0  0  0  0  0  0  0
   -5.0013   -5.3625    0.0000 Cl  0  0  0  0  0  0  0  0  0  0  0  0
   -3.9166   -4.2128    0.0000 H   0  0  0  0  0  0  0  0  0  0  0  0
   -4.6571   -4.2128    0.0000 H   0  0  0  0  0  0  0  0  0  0  0  0
   -2.8579   -4.1250    0.0000 C   0  0  0  0  0  0  0  0  0  0  0  0
   -3.3112   -3.4357    0.0000 H   0  0  0  0  0  0  0  0  0  0  0  0
   -3.6815   -4.0770    0.0000 H   0  0  0  0  0  0  0  0  0  0  0  0
   -2.1434   -3.7125    0.0000 C   0  0  0  0  0  0  0  0  0  0  0  0
   -1.7732   -2.9753    0.0000 H   0  0  0  0  0  0  0  0  0  0  0  0
   -2.5137   -2.9753    0.0000 H   0  0  0  0  0  0  0  0  0  0  0  0
    0.0000   -2.4750    0.0000 C   0  0  0  0  0  0  0  0  0  0  0  0
   -0.7145   -2.0625    0.0000 H   0  0  0  0  0  0  0  0  0  0  0  0
    1.5395   -1.2375    0.0000 H   0  0  0  0  0  0  0  0  0  0  0  0
    0.7145   -0.4125    0.0000 H   0  0  0  0  0  0  0  0  0  0  0  0
   -0.1105   -1.2375    0.0000 H   0  0  0  0  0  0  0  0  0  0  0  0
  1  2  1  0  0  0  0
  2  3  2  0  0  0  0
  3  4  1  0  0  0  0
  3  5  1  0  0  0  0
  5  6  1  0  0  0  0
  5  7  2  0  0  0  0
  7  8  1  0  0  0  0
  8  9  1  0  0  0  0
  8 10  1  0  0  0  0
  8 11  1  0  0  0  0
  7 12  1  0  0  0  0
 12 13  1  0  0  0  0
 13 14  2  0  0  0  0
 13 15  2  0  0  0  0
 13 16  1  0  0  0  0
 16 17  1  0  0  0  0
 17 18  1  0  0  0  0
 17 19  1  0  0  0  0
 17 20  1  0  0  0  0
 20 21  1  0  0  0  0
 20 22  1  0  0  0  0
 20 23  1  0  0  0  0
 23 24  1  0  0  0  0
 24 25  2  0  0  0  0
 24 26  1  0  0  0  0
 26 27  1  0  0  0  0
 26 28  1  0  0  0  0
 26 29  1  0  0  0  0
 23 30  1  0  0  0  0
 30 31  1  0  0  0  0
 30 32  1  0  0  0  0
 30 33  1  0  0  0  0
 16 33  1  0  0  0  0
 33 34  1  0  0  0  0
 33 35  1  0  0  0  0
 12 36  2  0  0  0  0
  2 36  1  0  0  0  0
 36 37  1  0  0  0  0
  1 38  1  0  0  0  0
  1 39  1  0  0  0  0
  1 40  1  0  0  0  0
M  END
> <Potency>
14.2164854520191

> <pIC50>
4.847207755044237

> <Outcome>
Inactive

> <is_active>
0

$$$$

  Mrv1921 08232120312D          

 45 48  0  0  0  0            999 V2000
    0.7145   -5.3625    0.0000 O   0  0  0  0  0  0  0  0  0  0  0  0
    1.4289   -4.9500    0.0000 C   0  0  0  0  0  0  0  0  0  0  0  0
    2.1434   -5.3625    0.0000 C   0  0  0  0  0  0  0  0  0  0  0  0
    2.1434   -6.1875    0.0000 Cl  0  0  0  0  0  0  0  0  0  0  0  0
    2.9670   -5.3145    0.0000 H   0  0  0  0  0  0  0  0  0  0  0  0
    2.5968   -4.6732    0.0000 H   0  0  0  0  0  0  0  0  0  0  0  0
    1.4289   -4.1250    0.0000 N   0  0  0  0  0  0  0  0  0  0  0  0
    0.7145   -3.7125    0.0000 C   0  0  0  0  0  0  0  0  0  0  0  0
   -0.1091   -3.7605    0.0000 H   0  0  0  0  0  0  0  0  0  0  0  0
    0.2611   -4.4018    0.0000 H   0  0  0  0  0  0  0  0  0  0  0  0
    0.7145   -2.8875    0.0000 C   0  0  0  0  0  0  0  0  0  0  0  0
    0.2611   -2.1982    0.0000 H   0  0  0  0  0  0  0  0  0  0  0  0
   -0.1091   -2.8395    0.0000 H   0  0  0  0  0  0  0  0  0  0  0  0
    1.4289   -2.4750    0.0000 C   0  0  0  0  0  0  0  0  0  0  0  0
    1.4289   -1.6500    0.0000 C   0  0  0  0  0  0  0  0  0  0  0  0
    0.7145   -1.2375    0.0000 N   0  0  0  0  0  0  0  0  0  0  0  0
    0.7145   -0.4125    0.0000 C   0  0  0  0  0  0  0  0  0  0  0  0
    0.0000    0.0000    0.0000 C   0  0  0  0  0  0  0  0  0  0  0  0
   -0.7145   -0.4125    0.0000 C   0  0  0  0  0  0  0  0  0  0  0  0
   -0.7145   -1.2375    0.0000 H   0  0  0  0  0  0  0  0  0  0  0  0
   -1.4289    0.0000    0.0000 C   0  0  0  0  0  0  0  0  0  0  0  0
   -2.1434   -0.4125    0.0000 H   0  0  0  0  0  0  0  0  0  0  0  0
   -1.4289    0.8250    0.0000 C   0  0  0  0  0  0  0  0  0  0  0  0
   -2.1434    1.2375    0.0000 H   0  0  0  0  0  0  0  0  0  0  0  0
   -0.7145    1.2375    0.0000 N   0  0  0  0  0  0  0  0  0  0  0  0
    0.0000    0.8250    0.0000 C   0  0  0  0  0  0  0  0  0  0  0  0
    0.7145    1.2375    0.0000 H   0  0  0  0  0  0  0  0  0  0  0  0
    1.4289    0.0000    0.0000 N   0  0  0  0  0  0  0  0  0  0  0  0
    2.1434   -0.4125    0.0000 C   0  0  0  0  0  0  0  0  0  0  0  0
    2.8579    0.0000    0.0000 C   0  0  0  0  0  0  0  0  0  0  0  0
    3.5724   -0.4125    0.0000 C   0  0  0  0  0  0  0  0  0  0  0  0
    3.5724   -1.2375    0.0000 C   0  0  0  0  0  0  0  0  0  0  0  0
    2.8579   -1.6500    0.0000 C   0  0  0  0  0  0  0  0  0  0  0  0
    3.2704   -2.3645    0.0000 H   0  0  0  0  0  0  0  0  0  0  0  0
    2.1434   -1.2375    0.0000 C   0  0  0  0  0  0  0  0  0  0  0  0
    4.2868   -1.6500    0.0000 H   0  0  0  0  0  0  0  0  0  0  0  0
    4.2868   -0.0000    0.0000 H   0  0  0  0  0  0  0  0  0  0  0  0
    2.8579    0.8250    0.0000 H   0  0  0  0  0  0  0  0  0  0  0  0
    2.1434   -2.0625    0.0000 H   0  0  0  0  0  0  0  0  0  0  0  0
    2.1434   -2.8875    0.0000 C   0  0  0  0  0  0  0  0  0  0  0  0
    2.9187   -3.1697    0.0000 H   0  0  0  0  0  0  0  0  0  0  0  0
    2.9187   -2.6053    0.0000 H   0  0  0  0  0  0  0  0  0  0  0  0
    2.1434   -3.7125    0.0000 C   0  0  0  0  0  0  0  0  0  0  0  0
    2.3142   -4.5196    0.0000 H   0  0  0  0  0  0  0  0  0  0  0  0
    2.8028   -4.2084    0.0000 H   0  0  0  0  0  0  0  0  0  0  0  0
  1  2  2  0  0  0  0
  2  3  1  0  0  0  0
  3  4  1  0  0  0  0
  3  5  1  0  0  0  0
  3  6  1  0  0  0  0
  2  7  1  0  0  0  0
  7  8  1  0  0  0  0
  8  9  1  0  0  0  0
  8 10  1  0  0  0  0
  8 11  1  0  0  0  0
 11 12  1  0  0  0  0
 11 13  1  0  0  0  0
 11 14  1  0  0  0  0
 14 15  1  0  0  0  0
 15 16  1  0  0  0  0
 16 17  2  0  0  0  0
 17 18  1  0  0  0  0
 18 19  2  0  0  0  0
 19 20  1  0  0  0  0
 19 21  1  0  0  0  0
 21 22  1  0  0  0  0
 21 23  2  0  0  0  0
 23 24  1  0  0  0  0
 23 25  1  0  0  0  0
 25 26  2  0  0  0  0
 18 26  1  0  0  0  0
 26 27  1  0  0  0  0
 17 28  1  0  0  0  0
 28 29  2  0  0  0  0
 29 30  1  0  0  0  0
 30 31  2  0  0  0  0
 31 32  1  0  0  0  0
 32 33  2  0  0  0  0
 33 34  1  0  0  0  0
 33 35  1  0  0  0  0
 15 35  2  0  0  0  0
 29 35  1  0  0  0  0
 32 36  1  0  0  0  0
 31 37  1  0  0  0  0
 30 38  1  0  0  0  0
 14 39  1  0  0  0  0
 14 40  1  0  0  0  0
 40 41  1  0  0  0  0
 40 42  1  0  0  0  0
 40 43  1  0  0  0  0
  7 43  1  0  0  0  0
 43 44  1  0  0  0  0
 43 45  1  0  0  0  0
M  END
> <Potency>
18.1752175723666

> <pIC50>
4.740520381574142

> <Outcome>
Inactive

> <is_active>
0

$$$$

  Mrv1921 08232120312D          

 49 51  0  0  0  0            999 V2000
   -2.1434    0.4125    0.0000 N   0  0  0  0  0  0  0  0  0  0  0  0
   -1.4289    0.0000    0.0000 S   0  0  0  0  0  0  0  0  0  0  0  0
   -1.8414   -0.7145    0.0000 O   0  0  0  0  0  0  0  0  0  0  0  0
   -1.0164    0.7145    0.0000 O   0  0  0  0  0  0  0  0  0  0  0  0
   -0.7145   -0.4125    0.0000 C   0  0  0  0  0  0  0  0  0  0  0  0
   -0.7145   -1.2375    0.0000 C   0  0  0  0  0  0  0  0  0  0  0  0
   -1.4289   -1.6500    0.0000 H   0  0  0  0  0  0  0  0  0  0  0  0
    0.0000   -1.6500    0.0000 C   0  0  0  0  0  0  0  0  0  0  0  0
    0.0000   -2.4750    0.0000 H   0  0  0  0  0  0  0  0  0  0  0  0
    0.7145   -1.2375    0.0000 C   0  0  0  0  0  0  0  0  0  0  0  0
    0.7145   -0.4125    0.0000 C   0  0  0  0  0  0  0  0  0  0  0  0
    1.4289   -0.0000    0.0000 C   0  0  0  0  0  0  0  0  0  0  0  0
    2.1434   -0.4125    0.0000 N   0  0  0  0  0  0  0  0  0  0  0  0
    2.8579   -0.0000    0.0000 C   0  0  0  0  0  0  0  0  0  0  0  0
    3.5724   -0.4125    0.0000 C   0  0  0  0  0  0  0  0  0  0  0  0
    4.2868   -0.0000    0.0000 C   0  0  0  0  0  0  0  0  0  0  0  0
    4.6571    0.7372    0.0000 H   0  0  0  0  0  0  0  0  0  0  0  0
    3.9166    0.7372    0.0000 H   0  0  0  0  0  0  0  0  0  0  0  0
    5.0013   -0.4125    0.0000 C   0  0  0  0  0  0  0  0  0  0  0  0
    5.8249   -0.3645    0.0000 H   0  0  0  0  0  0  0  0  0  0  0  0
    5.4546    0.2768    0.0000 H   0  0  0  0  0  0  0  0  0  0  0  0
    5.0013   -1.2375    0.0000 N   0  0  0  0  0  0  0  0  0  0  0  0
    5.7158   -1.6500    0.0000 C   0  0  0  0  0  0  0  0  0  0  0  0
    6.4302   -1.2375    0.0000 O   0  0  0  0  0  0  0  0  0  0  0  0
    5.7158   -2.4750    0.0000 C   0  0  0  0  0  0  0  0  0  0  0  0
    6.4302   -2.8875    0.0000 Cl  0  0  0  0  0  0  0  0  0  0  0  0
    4.8922   -2.5230    0.0000 H   0  0  0  0  0  0  0  0  0  0  0  0
    5.2624   -3.1643    0.0000 H   0  0  0  0  0  0  0  0  0  0  0  0
    4.2868   -1.6500    0.0000 C   0  0  0  0  0  0  0  0  0  0  0  0
    3.9166   -2.3872    0.0000 H   0  0  0  0  0  0  0  0  0  0  0  0
    4.6571   -2.3872    0.0000 H   0  0  0  0  0  0  0  0  0  0  0  0
    3.5724   -1.2375    0.0000 C   0  0  0  0  0  0  0  0  0  0  0  0
    2.9404   -1.7678    0.0000 H   0  0  0  0  0  0  0  0  0  0  0  0
    3.4291   -2.0500    0.0000 H   0  0  0  0  0  0  0  0  0  0  0  0
    2.8579   -0.8250    0.0000 H   0  0  0  0  0  0  0  0  0  0  0  0
    3.2281    0.7372    0.0000 H   0  0  0  0  0  0  0  0  0  0  0  0
    2.4876    0.7372    0.0000 H   0  0  0  0  0  0  0  0  0  0  0  0
    2.1434   -1.2375    0.0000 C   0  0  0  0  0  0  0  0  0  0  0  0
    1.4289   -1.6500    0.0000 C   0  0  0  0  0  0  0  0  0  0  0  0
    0.7123   -2.0587    0.0000 H   0  0  0  0  0  0  0  0  0  0  0  0
    1.4202   -2.4750    0.0000 H   0  0  0  0  0  0  0  0  0  0  0  0
    2.1172   -2.0621    0.0000 H   0  0  0  0  0  0  0  0  0  0  0  0
    1.4289   -0.8250    0.0000 H   0  0  0  0  0  0  0  0  0  0  0  0
    1.7992    0.7372    0.0000 H   0  0  0  0  0  0  0  0  0  0  0  0
    1.0587    0.7372    0.0000 H   0  0  0  0  0  0  0  0  0  0  0  0
    0.0000   -0.0000    0.0000 C   0  0  0  0  0  0  0  0  0  0  0  0
    0.0000    0.8250    0.0000 H   0  0  0  0  0  0  0  0  0  0  0  0
   -2.1434    1.2375    0.0000 H   0  0  0  0  0  0  0  0  0  0  0  0
   -2.8579    0.0000    0.0000 H   0  0  0  0  0  0  0  0  0  0  0  0
  1  2  1  0  0  0  0
  2  3  2  0  0  0  0
  2  4  2  0  0  0  0
  2  5  1  0  0  0  0
  5  6  2  0  0  0  0
  6  7  1  0  0  0  0
  6  8  1  0  0  0  0
  8  9  1  0  0  0  0
  8 10  2  0  0  0  0
 10 11  1  0  0  0  0
 11 12  1  0  0  0  0
 12 13  1  0  0  0  0
 13 14  1  0  0  0  0
 14 15  1  0  0  0  0
 15 16  1  0  0  0  0
 16 17  1  0  0  0  0
 16 18  1  0  0  0  0
 16 19  1  0  0  0  0
 19 20  1  0  0  0  0
 19 21  1  0  0  0  0
 19 22  1  0  0  0  0
 22 23  1  0  0  0  0
 23 24  2  0  0  0  0
 23 25  1  0  0  0  0
 25 26  1  0  0  0  0
 25 27  1  0  0  0  0
 25 28  1  0  0  0  0
 22 29  1  0  0  0  0
 29 30  1  0  0  0  0
 29 31  1  0  0  0  0
 29 32  1  0  0  0  0
 15 32  1  0  0  0  0
 32 33  1  0  0  0  0
 32 34  1  0  0  0  0
 15 35  1  0  0  0  0
 14 36  1  0  0  0  0
 14 37  1  0  0  0  0
 13 38  1  0  0  0  0
 38 39  1  0  0  0  0
 10 39  1  0  0  0  0
 39 40  1  0  0  0  0
 39 41  1  0  0  0  0
 38 42  1  0  0  0  0
 38 43  1  0  0  0  0
 12 44  1  0  0  0  0
 12 45  1  0  0  0  0
 11 46  2  0  0  0  0
  5 46  1  0  0  0  0
 46 47  1  0  0  0  0
  1 48  1  0  0  0  0
  1 49  1  0  0  0  0
M  END
> <Potency>
19.5400656389408

> <pIC50>
4.709073981733832

> <Outcome>
Inactive

> <is_active>
0

$$$$

  Mrv1921 08232120312D          

 55 57  0  0  0  0            999 V2000
    2.8579    0.0000    0.0000 O   0  0  0  0  0  0  0  0  0  0  0  0
    3.5724   -0.4125    0.0000 C   0  0  0  0  0  0  0  0  0  0  0  0
    3.5724   -1.2375    0.0000 N   0  0  0  0  0  0  0  0  0  0  0  0
    2.8579   -1.6500    0.0000 C   0  0  0  0  0  0  0  0  0  0  0  0
    2.8579   -2.4750    0.0000 C   0  0  0  0  0  0  0  0  0  0  0  0
    3.5724   -2.8875    0.0000 C   0  0  0  0  0  0  0  0  0  0  0  0
    4.2868   -2.4750    0.0000 H   0  0  0  0  0  0  0  0  0  0  0  0
    3.5724   -3.7125    0.0000 C   0  0  0  0  0  0  0  0  0  0  0  0
    4.2868   -4.1250    0.0000 H   0  0  0  0  0  0  0  0  0  0  0  0
    2.8579   -4.1250    0.0000 C   0  0  0  0  0  0  0  0  0  0  0  0
    2.8579   -4.9500    0.0000 Cl  0  0  0  0  0  0  0  0  0  0  0  0
    2.1434   -3.7125    0.0000 C   0  0  0  0  0  0  0  0  0  0  0  0
    1.4289   -4.1250    0.0000 H   0  0  0  0  0  0  0  0  0  0  0  0
    2.1434   -2.8875    0.0000 C   0  0  0  0  0  0  0  0  0  0  0  0
    1.4289   -2.4750    0.0000 C   0  0  0  0  0  0  0  0  0  0  0  0
    0.7145   -2.8875    0.0000 N   0  0  0  0  0  0  0  0  0  0  0  0
    0.7145   -3.7125    0.0000 C   0  0  0  0  0  0  0  0  0  0  0  0
    1.4289   -3.3000    0.0000 H   0  0  0  0  0  0  0  0  0  0  0  0
    0.7145   -4.5375    0.0000 H   0  0  0  0  0  0  0  0  0  0  0  0
    0.0000   -4.1250    0.0000 C   0  0  0  0  0  0  0  0  0  0  0  0
   -0.6320   -4.6553    0.0000 H   0  0  0  0  0  0  0  0  0  0  0  0
   -0.1433   -4.9375    0.0000 H   0  0  0  0  0  0  0  0  0  0  0  0
   -0.7145   -3.7125    0.0000 N   0  0  0  0  0  0  0  0  0  0  0  0
   -1.4289   -4.1250    0.0000 C   0  0  0  0  0  0  0  0  0  0  0  0
   -1.4289   -4.9500    0.0000 O   0  0  0  0  0  0  0  0  0  0  0  0
   -2.1434   -3.7125    0.0000 C   0  0  0  0  0  0  0  0  0  0  0  0
   -2.8579   -4.1250    0.0000 Cl  0  0  0  0  0  0  0  0  0  0  0  0
   -1.7732   -2.9753    0.0000 H   0  0  0  0  0  0  0  0  0  0  0  0
   -2.5137   -2.9753    0.0000 H   0  0  0  0  0  0  0  0  0  0  0  0
   -0.7145   -2.8875    0.0000 C   0  0  0  0  0  0  0  0  0  0  0  0
   -1.1678   -2.1982    0.0000 H   0  0  0  0  0  0  0  0  0  0  0  0
   -1.5381   -2.8395    0.0000 H   0  0  0  0  0  0  0  0  0  0  0  0
    0.0000   -2.4750    0.0000 C   0  0  0  0  0  0  0  0  0  0  0  0
    0.3703   -1.7378    0.0000 H   0  0  0  0  0  0  0  0  0  0  0  0
   -0.3703   -1.7378    0.0000 H   0  0  0  0  0  0  0  0  0  0  0  0
    1.7992   -1.7378    0.0000 H   0  0  0  0  0  0  0  0  0  0  0  0
    1.0587   -1.7378    0.0000 H   0  0  0  0  0  0  0  0  0  0  0  0
    2.4045   -0.9607    0.0000 H   0  0  0  0  0  0  0  0  0  0  0  0
    2.0343   -1.6020    0.0000 H   0  0  0  0  0  0  0  0  0  0  0  0
    4.2868   -1.6500    0.0000 H   0  0  0  0  0  0  0  0  0  0  0  0
    4.2868   -0.0000    0.0000 C   0  0  0  0  0  0  0  0  0  0  0  0
    4.2868    0.8250    0.0000 C   0  0  0  0  0  0  0  0  0  0  0  0
    3.8335    1.5143    0.0000 H   0  0  0  0  0  0  0  0  0  0  0  0
    3.4632    0.8730    0.0000 H   0  0  0  0  0  0  0  0  0  0  0  0
    5.0013    1.2375    0.0000 C   0  0  0  0  0  0  0  0  0  0  0  0
    5.3716    1.9747    0.0000 H   0  0  0  0  0  0  0  0  0  0  0  0
    4.6310    1.9747    0.0000 H   0  0  0  0  0  0  0  0  0  0  0  0
    5.7158    0.8250    0.0000 C   0  0  0  0  0  0  0  0  0  0  0  0
    6.5394    0.8730    0.0000 H   0  0  0  0  0  0  0  0  0  0  0  0
    6.1691    1.5143    0.0000 H   0  0  0  0  0  0  0  0  0  0  0  0
    5.7158   -0.0000    0.0000 O   0  0  0  0  0  0  0  0  0  0  0  0
    5.0013   -0.4125    0.0000 C   0  0  0  0  0  0  0  0  0  0  0  0
    5.1446   -1.2250    0.0000 H   0  0  0  0  0  0  0  0  0  0  0  0
    5.6333   -0.9428    0.0000 H   0  0  0  0  0  0  0  0  0  0  0  0
    4.2868   -0.8250    0.0000 H   0  0  0  0  0  0  0  0  0  0  0  0
  1  2  2  0  0  0  0
  2  3  1  0  0  0  0
  3  4  1  0  0  0  0
  4  5  1  0  0  0  0
  5  6  2  0  0  0  0
  6  7  1  0  0  0  0
  6  8  1  0  0  0  0
  8  9  1  0  0  0  0
  8 10  2  0  0  0  0
 10 11  1  0  0  0  0
 10 12  1  0  0  0  0
 12 13  1  0  0  0  0
 12 14  2  0  0  0  0
  5 14  1  0  0  0  0
 14 15  1  0  0  0  0
 15 16  1  0  0  0  0
 16 17  1  0  0  0  0
 17 18  1  0  0  0  0
 17 19  1  0  0  0  0
 17 20  1  0  0  0  0
 20 21  1  0  0  0  0
 20 22  1  0  0  0  0
 20 23  1  0  0  0  0
 23 24  1  0  0  0  0
 24 25  2  0  0  0  0
 24 26  1  0  0  0  0
 26 27  1  0  0  0  0
 26 28  1  0  0  0  0
 26 29  1  0  0  0  0
 23 30  1  0  0  0  0
 30 31  1  0  0  0  0
 30 32  1  0  0  0  0
 30 33  1  0  0  0  0
 16 33  1  0  0  0  0
 33 34  1  0  0  0  0
 33 35  1  0  0  0  0
 15 36  1  0  0  0  0
 15 37  1  0  0  0  0
  4 38  1  0  0  0  0
  4 39  1  0  0  0  0
  3 40  1  0  0  0  0
  2 41  1  0  0  0  0
 41 42  1  0  0  0  0
 42 43  1  0  0  0  0
 42 44  1  0  0  0  0
 42 45  1  0  0  0  0
 45 46  1  0  0  0  0
 45 47  1  0  0  0  0
 45 48  1  0  0  0  0
 48 49  1  0  0  0  0
 48 50  1  0  0  0  0
 48 51  1  0  0  0  0
 51 52  1  0  0  0  0
 41 52  1  0  0  0  0
 52 53  1  0  0  0  0
 52 54  1  0  0  0  0
 41 55  1  0  0  0  0
M  END
> <Potency>
12.1132386806886

> <pIC50>
4.9167397253042155

> <Outcome>
Inactive

> <is_active>
0

$$$$

  Mrv1921 08232120312D          

 49 51  0  0  0  0            999 V2000
   -0.7145   -2.0625    0.0000 C   0  0  0  0  0  0  0  0  0  0  0  0
    0.0000   -1.6500    0.0000 S   0  0  0  0  0  0  0  0  0  0  0  0
    0.4125   -2.3645    0.0000 O   0  0  0  0  0  0  0  0  0  0  0  0
   -0.4125   -0.9355    0.0000 O   0  0  0  0  0  0  0  0  0  0  0  0
    0.7145   -1.2375    0.0000 N   0  0  0  0  0  0  0  0  0  0  0  0
    0.7145   -0.4125    0.0000 C   0  0  0  0  0  0  0  0  0  0  0  0
    0.2611    0.2768    0.0000 H   0  0  0  0  0  0  0  0  0  0  0  0
   -0.1091   -0.3645    0.0000 H   0  0  0  0  0  0  0  0  0  0  0  0
    1.4289    0.0000    0.0000 C   0  0  0  0  0  0  0  0  0  0  0  0
    1.7992    0.7372    0.0000 H   0  0  0  0  0  0  0  0  0  0  0  0
    1.0587    0.7372    0.0000 H   0  0  0  0  0  0  0  0  0  0  0  0
    2.1434   -0.4125    0.0000 C   0  0  0  0  0  0  0  0  0  0  0  0
    2.8579    0.0000    0.0000 C   0  0  0  0  0  0  0  0  0  0  0  0
    3.5724   -0.4125    0.0000 C   0  0  0  0  0  0  0  0  0  0  0  0
    3.5724   -1.2375    0.0000 C   0  0  0  0  0  0  0  0  0  0  0  0
    4.2868   -1.6500    0.0000 C   0  0  0  0  0  0  0  0  0  0  0  0
    4.2868   -2.4750    0.0000 N   0  0  0  0  0  0  0  0  0  0  0  0
    5.0013   -2.8875    0.0000 C   0  0  0  0  0  0  0  0  0  0  0  0
    5.8249   -2.8395    0.0000 H   0  0  0  0  0  0  0  0  0  0  0  0
    5.4546   -2.1982    0.0000 H   0  0  0  0  0  0  0  0  0  0  0  0
    5.0013   -3.7125    0.0000 C   0  0  0  0  0  0  0  0  0  0  0  0
    5.4546   -4.4018    0.0000 H   0  0  0  0  0  0  0  0  0  0  0  0
    5.8249   -3.7605    0.0000 H   0  0  0  0  0  0  0  0  0  0  0  0
    4.2868   -4.1250    0.0000 N   0  0  0  0  0  0  0  0  0  0  0  0
    4.2868   -4.9500    0.0000 C   0  0  0  0  0  0  0  0  0  0  0  0
    5.0013   -5.3625    0.0000 O   0  0  0  0  0  0  0  0  0  0  0  0
    3.5724   -5.3625    0.0000 C   0  0  0  0  0  0  0  0  0  0  0  0
    3.5724   -6.1875    0.0000 Cl  0  0  0  0  0  0  0  0  0  0  0  0
    3.1190   -4.6732    0.0000 H   0  0  0  0  0  0  0  0  0  0  0  0
    2.7488   -5.3145    0.0000 H   0  0  0  0  0  0  0  0  0  0  0  0
    3.5724   -3.7125    0.0000 C   0  0  0  0  0  0  0  0  0  0  0  0
    2.7488   -3.7605    0.0000 H   0  0  0  0  0  0  0  0  0  0  0  0
    3.1190   -4.4018    0.0000 H   0  0  0  0  0  0  0  0  0  0  0  0
    3.5724   -2.8875    0.0000 C   0  0  0  0  0  0  0  0  0  0  0  0
    3.1190   -2.1982    0.0000 H   0  0  0  0  0  0  0  0  0  0  0  0
    2.7488   -2.8395    0.0000 H   0  0  0  0  0  0  0  0  0  0  0  0
    5.1104   -1.6020    0.0000 H   0  0  0  0  0  0  0  0  0  0  0  0
    4.7402   -0.9607    0.0000 H   0  0  0  0  0  0  0  0  0  0  0  0
    2.8579   -1.6500    0.0000 C   0  0  0  0  0  0  0  0  0  0  0  0
    2.2519   -2.2098    0.0000 H   0  0  0  0  0  0  0  0  0  0  0  0
    2.1434   -1.2375    0.0000 C   0  0  0  0  0  0  0  0  0  0  0  0
    1.4289   -1.6500    0.0000 C   0  0  0  0  0  0  0  0  0  0  0  0
    1.0587   -2.3872    0.0000 H   0  0  0  0  0  0  0  0  0  0  0  0
    1.7992   -2.3872    0.0000 H   0  0  0  0  0  0  0  0  0  0  0  0
    4.2868   -0.0000    0.0000 H   0  0  0  0  0  0  0  0  0  0  0  0
    2.8579    0.8250    0.0000 H   0  0  0  0  0  0  0  0  0  0  0  0
   -1.1270   -1.3480    0.0000 H   0  0  0  0  0  0  0  0  0  0  0  0
   -1.4289   -2.4750    0.0000 H   0  0  0  0  0  0  0  0  0  0  0  0
   -0.3020   -2.7770    0.0000 H   0  0  0  0  0  0  0  0  0  0  0  0
  1  2  1  0  0  0  0
  2  3  2  0  0  0  0
  2  4  2  0  0  0  0
  2  5  1  0  0  0  0
  5  6  1  0  0  0  0
  6  7  1  0  0  0  0
  6  8  1  0  0  0  0
  6  9  1  0  0  0  0
  9 10  1  0  0  0  0
  9 11  1  0  0  0  0
  9 12  1  0  0  0  0
 12 13  2  0  0  0  0
 13 14  1  0  0  0  0
 14 15  2  0  0  0  0
 15 16  1  0  0  0  0
 16 17  1  0  0  0  0
 17 18  1  0  0  0  0
 18 19  1  0  0  0  0
 18 20  1  0  0  0  0
 18 21  1  0  0  0  0
 21 22  1  0  0  0  0
 21 23  1  0  0  0  0
 21 24  1  0  0  0  0
 24 25  1  0  0  0  0
 25 26  2  0  0  0  0
 25 27  1  0  0  0  0
 27 28  1  0  0  0  0
 27 29  1  0  0  0  0
 27 30  1  0  0  0  0
 24 31  1  0  0  0  0
 31 32  1  0  0  0  0
 31 33  1  0  0  0  0
 31 34  1  0  0  0  0
 17 34  1  0  0  0  0
 34 35  1  0  0  0  0
 34 36  1  0  0  0  0
 16 37  1  0  0  0  0
 16 38  1  0  0  0  0
 15 39  1  0  0  0  0
 39 40  1  0  0  0  0
 39 41  2  0  0  0  0
 12 41  1  0  0  0  0
 41 42  1  0  0  0  0
  5 42  1  0  0  0  0
 42 43  1  0  0  0  0
 42 44  1  0  0  0  0
 14 45  1  0  0  0  0
 13 46  1  0  0  0  0
  1 47  1  0  0  0  0
  1 48  1  0  0  0  0
  1 49  1  0  0  0  0
M  END
> <Potency>
40.1854334103738

> <pIC50>
4.395931343331663

> <Outcome>
Inactive

> <is_active>
0

$$$$

  Mrv1921 08232120312D          

 43 44  0  0  0  0            999 V2000
    2.8579    0.0000    0.0000 C   0  0  0  0  0  0  0  0  0  0  0  0
    3.5724   -0.4125    0.0000 C   0  0  0  0  0  0  0  0  0  0  0  0
    3.5724   -1.2375    0.0000 C   0  0  0  0  0  0  0  0  0  0  0  0
    2.8579   -1.6500    0.0000 C   0  0  0  0  0  0  0  0  0  0  0  0
    2.8579   -2.4750    0.0000 C   0  0  0  0  0  0  0  0  0  0  0  0
    3.5724   -2.8875    0.0000 C   0  0  0  0  0  0  0  0  0  0  0  0
    4.2868   -2.4750    0.0000 H   0  0  0  0  0  0  0  0  0  0  0  0
    3.5724   -3.7125    0.0000 C   0  0  0  0  0  0  0  0  0  0  0  0
    4.2868   -4.1250    0.0000 H   0  0  0  0  0  0  0  0  0  0  0  0
    2.8579   -4.1250    0.0000 C   0  0  0  0  0  0  0  0  0  0  0  0
    2.8579   -4.9500    0.0000 H   0  0  0  0  0  0  0  0  0  0  0  0
    2.1434   -3.7125    0.0000 C   0  0  0  0  0  0  0  0  0  0  0  0
    1.4289   -4.1250    0.0000 H   0  0  0  0  0  0  0  0  0  0  0  0
    2.1434   -2.8875    0.0000 C   0  0  0  0  0  0  0  0  0  0  0  0
    1.3188   -2.9137    0.0000 H   0  0  0  0  0  0  0  0  0  0  0  0
    2.0826   -1.3678    0.0000 H   0  0  0  0  0  0  0  0  0  0  0  0
    2.0826   -1.9322    0.0000 H   0  0  0  0  0  0  0  0  0  0  0  0
    4.0257   -1.9268    0.0000 H   0  0  0  0  0  0  0  0  0  0  0  0
    4.3960   -1.2855    0.0000 H   0  0  0  0  0  0  0  0  0  0  0  0
    4.2868   -0.0000    0.0000 N   0  0  0  0  0  0  0  0  0  0  0  0
    4.2868    0.8250    0.0000 C   0  0  0  0  0  0  0  0  0  0  0  0
    3.8335    1.5143    0.0000 H   0  0  0  0  0  0  0  0  0  0  0  0
    3.4632    0.8730    0.0000 H   0  0  0  0  0  0  0  0  0  0  0  0
    5.0013    1.2375    0.0000 C   0  0  0  0  0  0  0  0  0  0  0  0
    5.3716    1.9747    0.0000 H   0  0  0  0  0  0  0  0  0  0  0  0
    4.6310    1.9747    0.0000 H   0  0  0  0  0  0  0  0  0  0  0  0
    5.7158    0.8250    0.0000 N   0  0  0  0  0  0  0  0  0  0  0  0
    6.4302    1.2375    0.0000 C   0  0  0  0  0  0  0  0  0  0  0  0
    6.4302    2.0625    0.0000 O   0  0  0  0  0  0  0  0  0  0  0  0
    7.1447    0.8250    0.0000 C   0  0  0  0  0  0  0  0  0  0  0  0
    7.8592    1.2375    0.0000 Cl  0  0  0  0  0  0  0  0  0  0  0  0
    6.7745    0.0878    0.0000 H   0  0  0  0  0  0  0  0  0  0  0  0
    7.5150    0.0878    0.0000 H   0  0  0  0  0  0  0  0  0  0  0  0
    5.7158   -0.0000    0.0000 C   0  0  0  0  0  0  0  0  0  0  0  0
    6.1691   -0.6893    0.0000 H   0  0  0  0  0  0  0  0  0  0  0  0
    6.5394   -0.0480    0.0000 H   0  0  0  0  0  0  0  0  0  0  0  0
    5.0013   -0.4125    0.0000 C   0  0  0  0  0  0  0  0  0  0  0  0
    4.6310   -1.1497    0.0000 H   0  0  0  0  0  0  0  0  0  0  0  0
    5.3716   -1.1497    0.0000 H   0  0  0  0  0  0  0  0  0  0  0  0
    2.8579   -0.8250    0.0000 H   0  0  0  0  0  0  0  0  0  0  0  0
    3.2704    0.7145    0.0000 H   0  0  0  0  0  0  0  0  0  0  0  0
    2.1434    0.4125    0.0000 H   0  0  0  0  0  0  0  0  0  0  0  0
    2.4454   -0.7145    0.0000 H   0  0  0  0  0  0  0  0  0  0  0  0
  1  2  1  0  0  0  0
  2  3  1  0  0  0  0
  3  4  1  0  0  0  0
  4  5  1  0  0  0  0
  5  6  2  0  0  0  0
  6  7  1  0  0  0  0
  6  8  1  0  0  0  0
  8  9  1  0  0  0  0
  8 10  2  0  0  0  0
 10 11  1  0  0  0  0
 10 12  1  0  0  0  0
 12 13  1  0  0  0  0
 12 14  2  0  0  0  0
  5 14  1  0  0  0  0
 14 15  1  0  0  0  0
  4 16  1  0  0  0  0
  4 17  1  0  0  0  0
  3 18  1  0  0  0  0
  3 19  1  0  0  0  0
  2 20  1  0  0  0  0
 20 21  1  0  0  0  0
 21 22  1  0  0  0  0
 21 23  1  0  0  0  0
 21 24  1  0  0  0  0
 24 25  1  0  0  0  0
 24 26  1  0  0  0  0
 24 27  1  0  0  0  0
 27 28  1  0  0  0  0
 28 29  2  0  0  0  0
 28 30  1  0  0  0  0
 30 31  1  0  0  0  0
 30 32  1  0  0  0  0
 30 33  1  0  0  0  0
 27 34  1  0  0  0  0
 34 35  1  0  0  0  0
 34 36  1  0  0  0  0
 34 37  1  0  0  0  0
 20 37  1  0  0  0  0
 37 38  1  0  0  0  0
 37 39  1  0  0  0  0
  2 40  1  0  0  0  0
  1 41  1  0  0  0  0
  1 42  1  0  0  0  0
  1 43  1  0  0  0  0
M  END
> <Potency>
20.2707244565286

> <pIC50>
4.693130729755415

> <Outcome>
Inactive

> <is_active>
0

$$$$

  Mrv1921 08232120312D          

 38 39  0  0  0  0            999 V2000
    2.1434   -0.4125    0.0000 C   0  0  0  0  0  0  0  0  0  0  0  0
    2.1434   -1.2375    0.0000 C   0  0  0  0  0  0  0  0  0  0  0  0
    2.8579   -1.6500    0.0000 C   0  0  0  0  0  0  0  0  0  0  0  0
    3.5724   -1.2375    0.0000 H   0  0  0  0  0  0  0  0  0  0  0  0
    2.8579   -2.4750    0.0000 C   0  0  0  0  0  0  0  0  0  0  0  0
    3.5724   -2.8875    0.0000 H   0  0  0  0  0  0  0  0  0  0  0  0
    2.1434   -2.8875    0.0000 C   0  0  0  0  0  0  0  0  0  0  0  0
    2.1434   -3.7125    0.0000 H   0  0  0  0  0  0  0  0  0  0  0  0
    1.4289   -2.4750    0.0000 C   0  0  0  0  0  0  0  0  0  0  0  0
    0.7145   -2.8875    0.0000 C   0  0  0  0  0  0  0  0  0  0  0  0
    0.0000   -2.4750    0.0000 C   0  0  0  0  0  0  0  0  0  0  0  0
   -0.7145   -2.8875    0.0000 C   0  0  0  0  0  0  0  0  0  0  0  0
   -1.0847   -3.6247    0.0000 H   0  0  0  0  0  0  0  0  0  0  0  0
   -0.3442   -3.6247    0.0000 H   0  0  0  0  0  0  0  0  0  0  0  0
   -1.4289   -2.4750    0.0000 C   0  0  0  0  0  0  0  0  0  0  0  0
   -2.2525   -2.5230    0.0000 H   0  0  0  0  0  0  0  0  0  0  0  0
   -1.8823   -3.1643    0.0000 H   0  0  0  0  0  0  0  0  0  0  0  0
   -1.4289   -1.6500    0.0000 N   0  0  0  0  0  0  0  0  0  0  0  0
   -2.1434   -1.2375    0.0000 C   0  0  0  0  0  0  0  0  0  0  0  0
   -2.8579   -1.6500    0.0000 O   0  0  0  0  0  0  0  0  0  0  0  0
   -2.1434   -0.4125    0.0000 C   0  0  0  0  0  0  0  0  0  0  0  0
   -2.8579    0.0000    0.0000 Cl  0  0  0  0  0  0  0  0  0  0  0  0
   -1.3198   -0.3645    0.0000 H   0  0  0  0  0  0  0  0  0  0  0  0
   -1.6901    0.2768    0.0000 H   0  0  0  0  0  0  0  0  0  0  0  0
   -0.7145   -1.2375    0.0000 C   0  0  0  0  0  0  0  0  0  0  0  0
   -0.3442   -0.5003    0.0000 H   0  0  0  0  0  0  0  0  0  0  0  0
   -1.0847   -0.5003    0.0000 H   0  0  0  0  0  0  0  0  0  0  0  0
    0.0000   -1.6500    0.0000 C   0  0  0  0  0  0  0  0  0  0  0  0
    0.6320   -1.1197    0.0000 H   0  0  0  0  0  0  0  0  0  0  0  0
    0.1433   -0.8375    0.0000 H   0  0  0  0  0  0  0  0  0  0  0  0
    0.7145   -2.0625    0.0000 H   0  0  0  0  0  0  0  0  0  0  0  0
    0.3442   -3.6247    0.0000 H   0  0  0  0  0  0  0  0  0  0  0  0
    1.0847   -3.6247    0.0000 H   0  0  0  0  0  0  0  0  0  0  0  0
    1.4289   -1.6500    0.0000 C   0  0  0  0  0  0  0  0  0  0  0  0
    1.4551   -0.8254    0.0000 H   0  0  0  0  0  0  0  0  0  0  0  0
    2.9684   -0.4125    0.0000 H   0  0  0  0  0  0  0  0  0  0  0  0
    2.1434    0.4125    0.0000 H   0  0  0  0  0  0  0  0  0  0  0  0
    1.3184   -0.4125    0.0000 H   0  0  0  0  0  0  0  0  0  0  0  0
  1  2  1  0  0  0  0
  2  3  2  0  0  0  0
  3  4  1  0  0  0  0
  3  5  1  0  0  0  0
  5  6  1  0  0  0  0
  5  7  2  0  0  0  0
  7  8  1  0  0  0  0
  7  9  1  0  0  0  0
  9 10  1  0  0  0  0
 10 11  1  0  0  0  0
 11 12  1  0  0  0  0
 12 13  1  0  0  0  0
 12 14  1  0  0  0  0
 12 15  1  0  0  0  0
 15 16  1  0  0  0  0
 15 17  1  0  0  0  0
 15 18  1  0  0  0  0
 18 19  1  0  0  0  0
 19 20  2  0  0  0  0
 19 21  1  0  0  0  0
 21 22  1  0  0  0  0
 21 23  1  0  0  0  0
 21 24  1  0  0  0  0
 18 25  1  0  0  0  0
 25 26  1  0  0  0  0
 25 27  1  0  0  0  0
 25 28  1  0  0  0  0
 11 28  1  0  0  0  0
 28 29  1  0  0  0  0
 28 30  1  0  0  0  0
 11 31  1  0  0  0  0
 10 32  1  0  0  0  0
 10 33  1  0  0  0  0
  9 34  2  0  0  0  0
  2 34  1  0  0  0  0
 34 35  1  0  0  0  0
  1 36  1  0  0  0  0
  1 37  1  0  0  0  0
  1 38  1  0  0  0  0
M  END
> <Potency>
14.724751238932

> <pIC50>
4.831952033482913

> <Outcome>
Inactive

> <is_active>
0

$$$$

  Mrv1921 08232120312D          

 48 50  0  0  0  0            999 V2000
    1.4289   -1.6500    0.0000 O   0  0  0  0  0  0  0  0  0  0  0  0
    0.7145   -1.2375    0.0000 C   0  0  0  0  0  0  0  0  0  0  0  0
    0.7145   -0.4125    0.0000 C   0  0  0  0  0  0  0  0  0  0  0  0
    1.4289   -0.0000    0.0000 Cl  0  0  0  0  0  0  0  0  0  0  0  0
    0.2611    0.2768    0.0000 H   0  0  0  0  0  0  0  0  0  0  0  0
   -0.1091   -0.3645    0.0000 H   0  0  0  0  0  0  0  0  0  0  0  0
    0.0000   -1.6500    0.0000 N   0  0  0  0  0  0  0  0  0  0  0  0
    0.0000   -2.4750    0.0000 C   0  0  0  0  0  0  0  0  0  0  0  0
    0.4533   -3.1643    0.0000 H   0  0  0  0  0  0  0  0  0  0  0  0
    0.8236   -2.5230    0.0000 H   0  0  0  0  0  0  0  0  0  0  0  0
   -0.7145   -2.8875    0.0000 C   0  0  0  0  0  0  0  0  0  0  0  0
   -1.0847   -3.6247    0.0000 H   0  0  0  0  0  0  0  0  0  0  0  0
   -0.3442   -3.6247    0.0000 H   0  0  0  0  0  0  0  0  0  0  0  0
   -1.4289   -2.4750    0.0000 N   0  0  0  0  0  0  0  0  0  0  0  0
   -2.1434   -2.8875    0.0000 C   0  0  0  0  0  0  0  0  0  0  0  0
   -2.8579   -2.4750    0.0000 C   0  0  0  0  0  0  0  0  0  0  0  0
   -3.5724   -2.8875    0.0000 C   0  0  0  0  0  0  0  0  0  0  0  0
   -3.5724   -3.7125    0.0000 H   0  0  0  0  0  0  0  0  0  0  0  0
   -4.2868   -2.4750    0.0000 C   0  0  0  0  0  0  0  0  0  0  0  0
   -5.0013   -2.8875    0.0000 H   0  0  0  0  0  0  0  0  0  0  0  0
   -4.2868   -1.6500    0.0000 C   0  0  0  0  0  0  0  0  0  0  0  0
   -5.0013   -1.2375    0.0000 H   0  0  0  0  0  0  0  0  0  0  0  0
   -3.5724   -1.2375    0.0000 C   0  0  0  0  0  0  0  0  0  0  0  0
   -3.5724   -0.4125    0.0000 H   0  0  0  0  0  0  0  0  0  0  0  0
   -2.8579   -1.6500    0.0000 C   0  0  0  0  0  0  0  0  0  0  0  0
   -2.4454   -0.9355    0.0000 H   0  0  0  0  0  0  0  0  0  0  0  0
   -2.1434   -3.7125    0.0000 C   0  0  0  0  0  0  0  0  0  0  0  0
   -1.4289   -4.1250    0.0000 C   0  0  0  0  0  0  0  0  0  0  0  0
   -0.6411   -4.3699    0.0000 H   0  0  0  0  0  0  0  0  0  0  0  0
   -2.1434   -4.5375    0.0000 H   0  0  0  0  0  0  0  0  0  0  0  0
   -1.4289   -4.9500    0.0000 C   0  0  0  0  0  0  0  0  0  0  0  0
   -0.9756   -5.6393    0.0000 H   0  0  0  0  0  0  0  0  0  0  0  0
   -0.6053   -4.9980    0.0000 H   0  0  0  0  0  0  0  0  0  0  0  0
   -2.1434   -5.3625    0.0000 O   0  0  0  0  0  0  0  0  0  0  0  0
   -2.8579   -4.9500    0.0000 C   0  0  0  0  0  0  0  0  0  0  0  0
   -3.6815   -4.9980    0.0000 H   0  0  0  0  0  0  0  0  0  0  0  0
   -3.3112   -5.6393    0.0000 H   0  0  0  0  0  0  0  0  0  0  0  0
   -2.8579   -4.1250    0.0000 C   0  0  0  0  0  0  0  0  0  0  0  0
   -3.6704   -4.2683    0.0000 H   0  0  0  0  0  0  0  0  0  0  0  0
   -3.3882   -4.7570    0.0000 H   0  0  0  0  0  0  0  0  0  0  0  0
   -2.8579   -3.3000    0.0000 H   0  0  0  0  0  0  0  0  0  0  0  0
   -2.1434   -2.0625    0.0000 H   0  0  0  0  0  0  0  0  0  0  0  0
   -1.4289   -1.6500    0.0000 C   0  0  0  0  0  0  0  0  0  0  0  0
   -1.5722   -0.8375    0.0000 H   0  0  0  0  0  0  0  0  0  0  0  0
   -2.0609   -1.1197    0.0000 H   0  0  0  0  0  0  0  0  0  0  0  0
   -0.7145   -1.2375    0.0000 C   0  0  0  0  0  0  0  0  0  0  0  0
   -0.1008   -0.6861    0.0000 H   0  0  0  0  0  0  0  0  0  0  0  0
   -0.6147   -0.4186    0.0000 H   0  0  0  0  0  0  0  0  0  0  0  0
  1  2  2  0  0  0  0
  2  3  1  0  0  0  0
  3  4  1  0  0  0  0
  3  5  1  0  0  0  0
  3  6  1  0  0  0  0
  2  7  1  0  0  0  0
  7  8  1  0  0  0  0
  8  9  1  0  0  0  0
  8 10  1  0  0  0  0
  8 11  1  0  0  0  0
 11 12  1  0  0  0  0
 11 13  1  0  0  0  0
 11 14  1  0  0  0  0
 14 15  1  0  0  0  0
 15 16  1  0  0  0  0
 16 17  2  0  0  0  0
 17 18  1  0  0  0  0
 17 19  1  0  0  0  0
 19 20  1  0  0  0  0
 19 21  2  0  0  0  0
 21 22  1  0  0  0  0
 21 23  1  0  0  0  0
 23 24  1  0  0  0  0
 23 25  2  0  0  0  0
 16 25  1  0  0  0  0
 25 26  1  0  0  0  0
 15 27  1  0  0  0  0
 27 28  1  0  0  0  0
 28 29  1  0  0  0  0
 28 30  1  0  0  0  0
 28 31  1  0  0  0  0
 31 32  1  0  0  0  0
 31 33  1  0  0  0  0
 31 34  1  0  0  0  0
 34 35  1  0  0  0  0
 35 36  1  0  0  0  0
 35 37  1  0  0  0  0
 35 38  1  0  0  0  0
 27 38  1  0  0  0  0
 38 39  1  0  0  0  0
 38 40  1  0  0  0  0
 27 41  1  0  0  0  0
 15 42  1  0  0  0  0
 14 43  1  0  0  0  0
 43 44  1  0  0  0  0
 43 45  1  0  0  0  0
 43 46  1  0  0  0  0
  7 46  1  0  0  0  0
 46 47  1  0  0  0  0
 46 48  1  0  0  0  0
M  END
> <Potency>
20.726390543875

> <pIC50>
4.683476322766922

> <Outcome>
Inactive

> <is_active>
0

$$$$

  Mrv1921 08232120312D          

 47 50  0  0  0  0            999 V2000
   -2.8762   -3.5789    0.0000 C   0  0  0  0  0  0  0  0  0  0  0  0
   -3.1311   -2.7943    0.0000 N   0  0  0  0  0  0  0  0  0  0  0  0
   -3.9157   -2.5394    0.0000 N   0  0  0  0  0  0  0  0  0  0  0  0
   -3.9157   -1.7144    0.0000 N   0  0  0  0  0  0  0  0  0  0  0  0
   -3.1311   -1.4594    0.0000 C   0  0  0  0  0  0  0  0  0  0  0  0
   -2.8762   -0.6748    0.0000 H   0  0  0  0  0  0  0  0  0  0  0  0
   -2.6462   -2.1269    0.0000 C   0  0  0  0  0  0  0  0  0  0  0  0
   -1.8212   -2.1269    0.0000 C   0  0  0  0  0  0  0  0  0  0  0  0
   -1.4087   -1.4124    0.0000 C   0  0  0  0  0  0  0  0  0  0  0  0
   -1.8212   -0.6979    0.0000 O   0  0  0  0  0  0  0  0  0  0  0  0
   -0.5837   -1.4124    0.0000 N   0  0  0  0  0  0  0  0  0  0  0  0
   -0.1712   -0.6979    0.0000 C   0  0  0  0  0  0  0  0  0  0  0  0
   -0.5837    0.0165    0.0000 C   0  0  0  0  0  0  0  0  0  0  0  0
   -1.4087    0.0165    0.0000 C   0  0  0  0  0  0  0  0  0  0  0  0
   -2.2337    0.0165    0.0000 H   0  0  0  0  0  0  0  0  0  0  0  0
   -1.8212    0.7310    0.0000 C   0  0  0  0  0  0  0  0  0  0  0  0
   -2.5357    1.1435    0.0000 H   0  0  0  0  0  0  0  0  0  0  0  0
   -1.4087    1.4455    0.0000 C   0  0  0  0  0  0  0  0  0  0  0  0
   -1.8212    2.1599    0.0000 H   0  0  0  0  0  0  0  0  0  0  0  0
   -0.5837    1.4455    0.0000 C   0  0  0  0  0  0  0  0  0  0  0  0
   -0.1712    2.1599    0.0000 H   0  0  0  0  0  0  0  0  0  0  0  0
   -0.1712    0.7310    0.0000 C   0  0  0  0  0  0  0  0  0  0  0  0
    0.6538    0.7310    0.0000 H   0  0  0  0  0  0  0  0  0  0  0  0
    0.6538   -0.6979    0.0000 C   0  0  0  0  0  0  0  0  0  0  0  0
    1.1387   -0.0305    0.0000 N   0  0  0  0  0  0  0  0  0  0  0  0
    1.9233   -0.2854    0.0000 C   0  0  0  0  0  0  0  0  0  0  0  0
    2.6378    0.1271    0.0000 C   0  0  0  0  0  0  0  0  0  0  0  0
    3.3523   -0.2854    0.0000 C   0  0  0  0  0  0  0  0  0  0  0  0
    3.3523   -1.1104    0.0000 C   0  0  0  0  0  0  0  0  0  0  0  0
    2.6378   -1.5229    0.0000 C   0  0  0  0  0  0  0  0  0  0  0  0
    2.6378   -2.3479    0.0000 H   0  0  0  0  0  0  0  0  0  0  0  0
    1.9233   -1.1104    0.0000 C   0  0  0  0  0  0  0  0  0  0  0  0
    1.1387   -1.3654    0.0000 N   0  0  0  0  0  0  0  0  0  0  0  0
    0.8838   -2.1500    0.0000 C   0  0  0  0  0  0  0  0  0  0  0  0
    0.0992   -1.8951    0.0000 H   0  0  0  0  0  0  0  0  0  0  0  0
    0.6288   -2.9346    0.0000 H   0  0  0  0  0  0  0  0  0  0  0  0
    1.6684   -2.4049    0.0000 H   0  0  0  0  0  0  0  0  0  0  0  0
    4.0668   -1.5229    0.0000 H   0  0  0  0  0  0  0  0  0  0  0  0
    4.0668    0.1271    0.0000 H   0  0  0  0  0  0  0  0  0  0  0  0
    2.6378    0.9521    0.0000 H   0  0  0  0  0  0  0  0  0  0  0  0
   -0.9962   -0.6979    0.0000 H   0  0  0  0  0  0  0  0  0  0  0  0
   -0.1712   -2.1269    0.0000 H   0  0  0  0  0  0  0  0  0  0  0  0
   -1.7732   -2.9505    0.0000 H   0  0  0  0  0  0  0  0  0  0  0  0
   -1.1319   -2.5802    0.0000 H   0  0  0  0  0  0  0  0  0  0  0  0
   -3.6608   -3.8339    0.0000 H   0  0  0  0  0  0  0  0  0  0  0  0
   -2.6212   -4.3636    0.0000 H   0  0  0  0  0  0  0  0  0  0  0  0
   -2.0916   -3.3240    0.0000 H   0  0  0  0  0  0  0  0  0  0  0  0
  1  2  1  0  0  0  0
  2  3  1  0  0  0  0
  3  4  2  0  0  0  0
  4  5  1  0  0  0  0
  5  6  1  0  0  0  0
  5  7  2  0  0  0  0
  2  7  1  0  0  0  0
  7  8  1  0  0  0  0
  8  9  1  0  0  0  0
  9 10  2  0  0  0  0
  9 11  1  0  0  0  0
 11 12  1  0  0  0  0
 12 13  1  0  0  0  0
 13 14  2  0  0  0  0
 14 15  1  0  0  0  0
 14 16  1  0  0  0  0
 16 17  1  0  0  0  0
 16 18  2  0  0  0  0
 18 19  1  0  0  0  0
 18 20  1  0  0  0  0
 20 21  1  0  0  0  0
 20 22  2  0  0  0  0
 13 22  1  0  0  0  0
 22 23  1  0  0  0  0
 12 24  1  0  0  0  0
 24 25  2  0  0  0  0
 25 26  1  0  0  0  0
 26 27  2  0  0  0  0
 27 28  1  0  0  0  0
 28 29  2  0  0  0  0
 29 30  1  0  0  0  0
 30 31  1  0  0  0  0
 30 32  2  0  0  0  0
 26 32  1  0  0  0  0
 32 33  1  0  0  0  0
 24 33  1  0  0  0  0
 33 34  1  0  0  0  0
 34 35  1  0  0  0  0
 34 36  1  0  0  0  0
 34 37  1  0  0  0  0
 29 38  1  0  0  0  0
 28 39  1  0  0  0  0
 27 40  1  0  0  0  0
 12 41  1  0  0  0  0
 11 42  1  0  0  0  0
  8 43  1  0  0  0  0
  8 44  1  0  0  0  0
  1 45  1  0  0  0  0
  1 46  1  0  0  0  0
  1 47  1  0  0  0  0
M  END
> <Potency>
35.6886848625696

> <pIC50>
4.447469455615437

> <Outcome>
Inactive

> <is_active>
0

$$$$

  Mrv1921 08232120312D          

 44 46  0  0  0  0            999 V2000
    1.4289   -5.7750    0.0000 C   0  0  0  0  0  0  0  0  0  0  0  0
    0.7145   -6.1875    0.0000 C   0  0  0  0  0  0  0  0  0  0  0  0
    0.7145   -7.0125    0.0000 C   0  0  0  0  0  0  0  0  0  0  0  0
    1.1270   -7.7270    0.0000 H   0  0  0  0  0  0  0  0  0  0  0  0
   -0.0000   -7.4250    0.0000 C   0  0  0  0  0  0  0  0  0  0  0  0
   -0.0000   -8.2500    0.0000 H   0  0  0  0  0  0  0  0  0  0  0  0
   -0.7145   -7.0125    0.0000 N   0  0  0  0  0  0  0  0  0  0  0  0
   -0.7145   -6.1875    0.0000 C   0  0  0  0  0  0  0  0  0  0  0  0
   -1.4289   -5.7750    0.0000 H   0  0  0  0  0  0  0  0  0  0  0  0
    0.0000   -5.7750    0.0000 C   0  0  0  0  0  0  0  0  0  0  0  0
    0.0000   -4.9500    0.0000 N   0  0  0  0  0  0  0  0  0  0  0  0
    0.7145   -4.5375    0.0000 C   0  0  0  0  0  0  0  0  0  0  0  0
    1.4289   -4.9500    0.0000 O   0  0  0  0  0  0  0  0  0  0  0  0
    0.7145   -3.7125    0.0000 C   0  0  0  0  0  0  0  0  0  0  0  0
    1.4289   -3.3000    0.0000 N   0  0  0  0  0  0  0  0  0  0  0  0
    2.1434   -3.7125    0.0000 C   0  0  0  0  0  0  0  0  0  0  0  0
    1.7309   -4.4270    0.0000 H   0  0  0  0  0  0  0  0  0  0  0  0
    2.8579   -4.1250    0.0000 H   0  0  0  0  0  0  0  0  0  0  0  0
    2.5559   -2.9980    0.0000 H   0  0  0  0  0  0  0  0  0  0  0  0
    1.4289   -2.4750    0.0000 S   0  0  0  0  0  0  0  0  0  0  0  0
    2.2539   -2.4750    0.0000 O   0  0  0  0  0  0  0  0  0  0  0  0
    0.6039   -2.4750    0.0000 O   0  0  0  0  0  0  0  0  0  0  0  0
    1.4289   -1.6500    0.0000 C   0  0  0  0  0  0  0  0  0  0  0  0
    0.7145   -1.2375    0.0000 C   0  0  0  0  0  0  0  0  0  0  0  0
    0.0000   -1.6500    0.0000 H   0  0  0  0  0  0  0  0  0  0  0  0
    0.7145   -0.4125    0.0000 C   0  0  0  0  0  0  0  0  0  0  0  0
    0.0000    0.0000    0.0000 H   0  0  0  0  0  0  0  0  0  0  0  0
    1.4289    0.0000    0.0000 C   0  0  0  0  0  0  0  0  0  0  0  0
    1.4289    0.8250    0.0000 H   0  0  0  0  0  0  0  0  0  0  0  0
    2.1434   -0.4125    0.0000 C   0  0  0  0  0  0  0  0  0  0  0  0
    2.8579    0.0000    0.0000 C   0  0  0  0  0  0  0  0  0  0  0  0
    3.5724   -0.4125    0.0000 C   0  0  0  0  0  0  0  0  0  0  0  0
    3.5724   -1.2375    0.0000 C   0  0  0  0  0  0  0  0  0  0  0  0
    2.8579   -1.6500    0.0000 N   0  0  0  0  0  0  0  0  0  0  0  0
    2.1434   -1.2375    0.0000 C   0  0  0  0  0  0  0  0  0  0  0  0
    4.2868   -1.6500    0.0000 H   0  0  0  0  0  0  0  0  0  0  0  0
    4.2868   -0.0000    0.0000 H   0  0  0  0  0  0  0  0  0  0  0  0
    2.8579    0.8250    0.0000 H   0  0  0  0  0  0  0  0  0  0  0  0
    0.2611   -3.0232    0.0000 H   0  0  0  0  0  0  0  0  0  0  0  0
   -0.1091   -3.6645    0.0000 H   0  0  0  0  0  0  0  0  0  0  0  0
   -0.7145   -4.5375    0.0000 H   0  0  0  0  0  0  0  0  0  0  0  0
    1.4289   -6.6000    0.0000 H   0  0  0  0  0  0  0  0  0  0  0  0
    2.1434   -6.1875    0.0000 H   0  0  0  0  0  0  0  0  0  0  0  0
    2.1434   -5.3625    0.0000 H   0  0  0  0  0  0  0  0  0  0  0  0
  1  2  1  0  0  0  0
  2  3  2  0  0  0  0
  3  4  1  0  0  0  0
  3  5  1  0  0  0  0
  5  6  1  0  0  0  0
  5  7  2  0  0  0  0
  7  8  1  0  0  0  0
  8  9  1  0  0  0  0
  8 10  2  0  0  0  0
  2 10  1  0  0  0  0
 10 11  1  0  0  0  0
 11 12  1  0  0  0  0
 12 13  2  0  0  0  0
 12 14  1  0  0  0  0
 14 15  1  0  0  0  0
 15 16  1  0  0  0  0
 16 17  1  0  0  0  0
 16 18  1  0  0  0  0
 16 19  1  0  0  0  0
 15 20  1  0  0  0  0
 20 21  2  0  0  0  0
 20 22  2  0  0  0  0
 20 23  1  0  0  0  0
 23 24  2  0  0  0  0
 24 25  1  0  0  0  0
 24 26  1  0  0  0  0
 26 27  1  0  0  0  0
 26 28  2  0  0  0  0
 28 29  1  0  0  0  0
 28 30  1  0  0  0  0
 30 31  2  0  0  0  0
 31 32  1  0  0  0  0
 32 33  2  0  0  0  0
 33 34  1  0  0  0  0
 34 35  2  0  0  0  0
 23 35  1  0  0  0  0
 30 35  1  0  0  0  0
 33 36  1  0  0  0  0
 32 37  1  0  0  0  0
 31 38  1  0  0  0  0
 14 39  1  0  0  0  0
 14 40  1  0  0  0  0
 11 41  1  0  0  0  0
  1 42  1  0  0  0  0
  1 43  1  0  0  0  0
  1 44  1  0  0  0  0
M  END
> <Potency>
99.0

> <pIC50>
4.00436480540245

> <Outcome>
Inactive

> <is_active>
0

$$$$

  Mrv1921 08232120312D          

 26 26  0  0  0  0            999 V2000
    3.3809   -2.1730    0.0000 O   0  0  0  0  0  0  0  0  0  0  0  0
    2.9684   -2.8875    0.0000 C   0  0  0  0  0  0  0  0  0  0  0  0
    2.1434   -2.8875    0.0000 C   0  0  0  0  0  0  0  0  0  0  0  0
    1.7309   -2.1730    0.0000 Cl  0  0  0  0  0  0  0  0  0  0  0  0
    1.4541   -3.3408    0.0000 H   0  0  0  0  0  0  0  0  0  0  0  0
    2.0954   -3.7111    0.0000 H   0  0  0  0  0  0  0  0  0  0  0  0
    3.3809   -3.6020    0.0000 N   0  0  0  0  0  0  0  0  0  0  0  0
    4.2059   -3.6020    0.0000 C   0  0  0  0  0  0  0  0  0  0  0  0
    4.6184   -2.8875    0.0000 C   0  0  0  0  0  0  0  0  0  0  0  0
    5.4434   -2.8875    0.0000 O   0  0  0  0  0  0  0  0  0  0  0  0
    6.1752   -3.2684    0.0000 H   0  0  0  0  0  0  0  0  0  0  0  0
    4.9006   -2.1123    0.0000 H   0  0  0  0  0  0  0  0  0  0  0  0
    4.3362   -2.1123    0.0000 H   0  0  0  0  0  0  0  0  0  0  0  0
    4.6184   -4.3164    0.0000 C   0  0  0  0  0  0  0  0  0  0  0  0
    5.4434   -4.3164    0.0000 C   0  0  0  0  0  0  0  0  0  0  0  0
    5.8559   -3.6020    0.0000 H   0  0  0  0  0  0  0  0  0  0  0  0
    5.8559   -5.0309    0.0000 C   0  0  0  0  0  0  0  0  0  0  0  0
    6.6809   -5.0309    0.0000 H   0  0  0  0  0  0  0  0  0  0  0  0
    5.4434   -5.7454    0.0000 C   0  0  0  0  0  0  0  0  0  0  0  0
    5.8559   -6.4599    0.0000 H   0  0  0  0  0  0  0  0  0  0  0  0
    4.6184   -5.7454    0.0000 C   0  0  0  0  0  0  0  0  0  0  0  0
    4.2059   -6.4599    0.0000 Cl  0  0  0  0  0  0  0  0  0  0  0  0
    4.2059   -5.0309    0.0000 C   0  0  0  0  0  0  0  0  0  0  0  0
    3.3809   -5.0309    0.0000 H   0  0  0  0  0  0  0  0  0  0  0  0
    3.7934   -2.8875    0.0000 H   0  0  0  0  0  0  0  0  0  0  0  0
    2.9684   -4.3164    0.0000 H   0  0  0  0  0  0  0  0  0  0  0  0
  1  2  2  0  0  0  0
  2  3  1  0  0  0  0
  3  4  1  0  0  0  0
  3  5  1  0  0  0  0
  3  6  1  0  0  0  0
  2  7  1  0  0  0  0
  7  8  1  0  0  0  0
  8  9  1  0  0  0  0
  9 10  1  0  0  0  0
 10 11  1  0  0  0  0
  9 12  1  0  0  0  0
  9 13  1  0  0  0  0
  8 14  1  0  0  0  0
 14 15  2  0  0  0  0
 15 16  1  0  0  0  0
 15 17  1  0  0  0  0
 17 18  1  0  0  0  0
 17 19  2  0  0  0  0
 19 20  1  0  0  0  0
 19 21  1  0  0  0  0
 21 22  1  0  0  0  0
 21 23  2  0  0  0  0
 14 23  1  0  0  0  0
 23 24  1  0  0  0  0
  8 25  1  0  0  0  0
  7 26  1  0  0  0  0
M  END
> <Potency>
99.03

> <pIC50>
4.0042332209500255

> <Outcome>
Inactive

> <is_active>
0

$$$$

  Mrv1921 08232120312D          

 25 25  0  0  0  0            999 V2000
    0.7145   -2.8875    0.0000 C   0  0  0  0  0  0  0  0  0  0  0  0
    0.7145   -2.0625    0.0000 C   0  0  0  0  0  0  0  0  0  0  0  0
    1.4289   -1.6500    0.0000 N   0  0  0  0  0  0  0  0  0  0  0  0
    2.1434   -2.0625    0.0000 C   0  0  0  0  0  0  0  0  0  0  0  0
    2.1434   -2.8875    0.0000 O   0  0  0  0  0  0  0  0  0  0  0  0
    2.8579   -1.6500    0.0000 C   0  0  0  0  0  0  0  0  0  0  0  0
    3.5724   -2.0625    0.0000 Cl  0  0  0  0  0  0  0  0  0  0  0  0
    3.2281   -0.9128    0.0000 H   0  0  0  0  0  0  0  0  0  0  0  0
    2.4876   -0.9128    0.0000 H   0  0  0  0  0  0  0  0  0  0  0  0
    1.4289   -0.8250    0.0000 H   0  0  0  0  0  0  0  0  0  0  0  0
    0.0000   -1.6500    0.0000 C   0  0  0  0  0  0  0  0  0  0  0  0
   -0.7145   -2.0625    0.0000 C   0  0  0  0  0  0  0  0  0  0  0  0
   -0.7145   -2.8875    0.0000 H   0  0  0  0  0  0  0  0  0  0  0  0
   -1.4289   -1.6500    0.0000 C   0  0  0  0  0  0  0  0  0  0  0  0
   -2.1434   -2.0625    0.0000 F   0  0  0  0  0  0  0  0  0  0  0  0
   -1.4289   -0.8250    0.0000 C   0  0  0  0  0  0  0  0  0  0  0  0
   -2.1434   -0.4125    0.0000 H   0  0  0  0  0  0  0  0  0  0  0  0
   -0.7145   -0.4125    0.0000 C   0  0  0  0  0  0  0  0  0  0  0  0
   -0.7145    0.4125    0.0000 Cl  0  0  0  0  0  0  0  0  0  0  0  0
    0.0000   -0.8250    0.0000 C   0  0  0  0  0  0  0  0  0  0  0  0
    0.7145   -0.4125    0.0000 H   0  0  0  0  0  0  0  0  0  0  0  0
    1.4289   -2.4750    0.0000 H   0  0  0  0  0  0  0  0  0  0  0  0
   -0.1105   -2.8875    0.0000 H   0  0  0  0  0  0  0  0  0  0  0  0
    0.7145   -3.7125    0.0000 H   0  0  0  0  0  0  0  0  0  0  0  0
    1.5395   -2.8875    0.0000 H   0  0  0  0  0  0  0  0  0  0  0  0
  1  2  1  0  0  0  0
  2  3  1  0  0  0  0
  3  4  1  0  0  0  0
  4  5  2  0  0  0  0
  4  6  1  0  0  0  0
  6  7  1  0  0  0  0
  6  8  1  0  0  0  0
  6  9  1  0  0  0  0
  3 10  1  0  0  0  0
  2 11  1  0  0  0  0
 11 12  2  0  0  0  0
 12 13  1  0  0  0  0
 12 14  1  0  0  0  0
 14 15  1  0  0  0  0
 14 16  2  0  0  0  0
 16 17  1  0  0  0  0
 16 18  1  0  0  0  0
 18 19  1  0  0  0  0
 18 20  2  0  0  0  0
 11 20  1  0  0  0  0
 20 21  1  0  0  0  0
  2 22  1  0  0  0  0
  1 23  1  0  0  0  0
  1 24  1  0  0  0  0
  1 25  1  0  0  0  0
M  END
> <Potency>
27.9438320218487

> <pIC50>
4.553714038027561

> <Outcome>
Inactive

> <is_active>
0

$$$$

  Mrv1921 08232120312D          

 52 54  0  0  0  0            999 V2000
    0.6357   -0.4096    0.0000 C   0  0  0  0  0  0  0  0  0  0  0  0
    1.3501    0.0029    0.0000 C   0  0  0  0  0  0  0  0  0  0  0  0
    2.0646   -0.4096    0.0000 C   0  0  0  0  0  0  0  0  0  0  0  0
    1.6521   -1.1240    0.0000 C   0  0  0  0  0  0  0  0  0  0  0  0
    1.2396   -1.8385    0.0000 H   0  0  0  0  0  0  0  0  0  0  0  0
    2.0646   -1.8385    0.0000 H   0  0  0  0  0  0  0  0  0  0  0  0
    2.4771   -1.1240    0.0000 H   0  0  0  0  0  0  0  0  0  0  0  0
    2.4771    0.3049    0.0000 C   0  0  0  0  0  0  0  0  0  0  0  0
    2.9796   -0.3494    0.0000 H   0  0  0  0  0  0  0  0  0  0  0  0
    3.2738    0.5191    0.0000 H   0  0  0  0  0  0  0  0  0  0  0  0
    2.5838    1.1230    0.0000 H   0  0  0  0  0  0  0  0  0  0  0  0
    2.7791   -0.8221    0.0000 C   0  0  0  0  0  0  0  0  0  0  0  0
    3.4935   -0.4096    0.0000 C   0  0  0  0  0  0  0  0  0  0  0  0
    4.2080   -0.8221    0.0000 N   0  0  0  0  0  0  0  0  0  0  0  0
    4.2080   -1.6471    0.0000 C   0  0  0  0  0  0  0  0  0  0  0  0
    3.4935   -2.0596    0.0000 C   0  0  0  0  0  0  0  0  0  0  0  0
    3.4073   -2.8801    0.0000 C   0  0  0  0  0  0  0  0  0  0  0  0
    4.0204   -3.4321    0.0000 H   0  0  0  0  0  0  0  0  0  0  0  0
    2.6003   -3.0516    0.0000 C   0  0  0  0  0  0  0  0  0  0  0  0
    2.2648   -3.8053    0.0000 H   0  0  0  0  0  0  0  0  0  0  0  0
    2.1878   -2.3371    0.0000 S   0  0  0  0  0  0  0  0  0  0  0  0
    2.7399   -1.7240    0.0000 C   0  0  0  0  0  0  0  0  0  0  0  0
    2.9114   -2.5310    0.0000 H   0  0  0  0  0  0  0  0  0  0  0  0
    4.6614   -2.3364    0.0000 H   0  0  0  0  0  0  0  0  0  0  0  0
    5.0316   -1.6950    0.0000 H   0  0  0  0  0  0  0  0  0  0  0  0
    4.9225   -0.4096    0.0000 C   0  0  0  0  0  0  0  0  0  0  0  0
    4.9225    0.4154    0.0000 O   0  0  0  0  0  0  0  0  0  0  0  0
    5.6370   -0.8221    0.0000 C   0  0  0  0  0  0  0  0  0  0  0  0
    6.3514   -0.4096    0.0000 N   0  0  0  0  0  0  0  0  0  0  0  0
    6.4377    0.4109    0.0000 N   0  0  0  0  0  0  0  0  0  0  0  0
    7.2446    0.5824    0.0000 N   0  0  0  0  0  0  0  0  0  0  0  0
    7.6571   -0.1320    0.0000 C   0  0  0  0  0  0  0  0  0  0  0  0
    8.4641   -0.3036    0.0000 C   0  0  0  0  0  0  0  0  0  0  0  0
    8.7190   -1.0882    0.0000 C   0  0  0  0  0  0  0  0  0  0  0  0
    8.1670   -1.7013    0.0000 C   0  0  0  0  0  0  0  0  0  0  0  0
    7.3600   -1.5298    0.0000 C   0  0  0  0  0  0  0  0  0  0  0  0
    6.8080   -2.1428    0.0000 H   0  0  0  0  0  0  0  0  0  0  0  0
    7.1051   -0.7451    0.0000 C   0  0  0  0  0  0  0  0  0  0  0  0
    8.4220   -2.4859    0.0000 H   0  0  0  0  0  0  0  0  0  0  0  0
    9.5260   -1.2597    0.0000 H   0  0  0  0  0  0  0  0  0  0  0  0
    9.0161    0.3095    0.0000 H   0  0  0  0  0  0  0  0  0  0  0  0
    5.2667   -1.5593    0.0000 H   0  0  0  0  0  0  0  0  0  0  0  0
    6.0072   -1.5593    0.0000 H   0  0  0  0  0  0  0  0  0  0  0  0
    4.2925   -0.2039    0.0000 H   0  0  0  0  0  0  0  0  0  0  0  0
    3.9200    0.2967    0.0000 H   0  0  0  0  0  0  0  0  0  0  0  0
    3.4844   -1.2500    0.0000 H   0  0  0  0  0  0  0  0  0  0  0  0
    1.9611   -0.9298    0.0000 H   0  0  0  0  0  0  0  0  0  0  0  0
    1.7204    0.7402    0.0000 H   0  0  0  0  0  0  0  0  0  0  0  0
    0.9799    0.7402    0.0000 H   0  0  0  0  0  0  0  0  0  0  0  0
    0.2232    0.3049    0.0000 H   0  0  0  0  0  0  0  0  0  0  0  0
   -0.0788   -0.8221    0.0000 H   0  0  0  0  0  0  0  0  0  0  0  0
    1.0482   -1.1240    0.0000 H   0  0  0  0  0  0  0  0  0  0  0  0
  1  2  1  0  0  0  0
  2  3  1  0  0  0  0
  3  4  1  0  0  0  0
  4  5  1  0  0  0  0
  4  6  1  0  0  0  0
  4  7  1  0  0  0  0
  3  8  1  0  0  0  0
  8  9  1  0  0  0  0
  8 10  1  0  0  0  0
  8 11  1  0  0  0  0
  3 12  1  0  0  0  0
 12 13  1  0  0  0  0
 13 14  1  0  0  0  0
 14 15  1  0  0  0  0
 15 16  1  0  0  0  0
 16 17  1  0  0  0  0
 17 18  1  0  0  0  0
 17 19  2  0  0  0  0
 19 20  1  0  0  0  0
 19 21  1  0  0  0  0
 21 22  1  0  0  0  0
 16 22  2  0  0  0  0
 22 23  1  0  0  0  0
 15 24  1  0  0  0  0
 15 25  1  0  0  0  0
 14 26  1  0  0  0  0
 26 27  2  0  0  0  0
 26 28  1  0  0  0  0
 28 29  1  0  0  0  0
 29 30  1  0  0  0  0
 30 31  2  0  0  0  0
 31 32  1  0  0  0  0
 32 33  2  0  0  0  0
 33 34  1  0  0  0  0
 34 35  2  0  0  0  0
 35 36  1  0  0  0  0
 36 37  1  0  0  0  0
 36 38  2  0  0  0  0
 29 38  1  0  0  0  0
 32 38  1  0  0  0  0
 35 39  1  0  0  0  0
 34 40  1  0  0  0  0
 33 41  1  0  0  0  0
 28 42  1  0  0  0  0
 28 43  1  0  0  0  0
 13 44  1  0  0  0  0
 13 45  1  0  0  0  0
 12 46  1  0  0  0  0
 12 47  1  0  0  0  0
  2 48  1  0  0  0  0
  2 49  1  0  0  0  0
  1 50  1  0  0  0  0
  1 51  1  0  0  0  0
  1 52  1  0  0  0  0
M  END
> <Potency>
78.4579695851566

> <pIC50>
4.1053629351737575

> <Outcome>
Inactive

> <is_active>
0

$$$$

  Mrv1921 08232120312D          

 38 39  0  0  0  0            999 V2000
    2.1434   -0.4125    0.0000 C   0  0  0  0  0  0  0  0  0  0  0  0
    2.1434   -1.2375    0.0000 C   0  0  0  0  0  0  0  0  0  0  0  0
    2.8579   -1.6500    0.0000 C   0  0  0  0  0  0  0  0  0  0  0  0
    3.5724   -1.2375    0.0000 H   0  0  0  0  0  0  0  0  0  0  0  0
    2.8579   -2.4750    0.0000 C   0  0  0  0  0  0  0  0  0  0  0  0
    3.5724   -2.8875    0.0000 C   0  0  0  0  0  0  0  0  0  0  0  0
    3.1599   -3.6020    0.0000 H   0  0  0  0  0  0  0  0  0  0  0  0
    4.2868   -3.3000    0.0000 H   0  0  0  0  0  0  0  0  0  0  0  0
    3.9849   -2.1730    0.0000 H   0  0  0  0  0  0  0  0  0  0  0  0
    2.1434   -2.8875    0.0000 N   0  0  0  0  0  0  0  0  0  0  0  0
    1.4289   -2.4750    0.0000 C   0  0  0  0  0  0  0  0  0  0  0  0
    0.7145   -2.8875    0.0000 N   0  0  0  0  0  0  0  0  0  0  0  0
    0.0000   -2.4750    0.0000 C   0  0  0  0  0  0  0  0  0  0  0  0
   -0.7145   -2.8875    0.0000 C   0  0  0  0  0  0  0  0  0  0  0  0
   -1.0847   -3.6247    0.0000 H   0  0  0  0  0  0  0  0  0  0  0  0
   -0.3442   -3.6247    0.0000 H   0  0  0  0  0  0  0  0  0  0  0  0
   -1.4289   -2.4750    0.0000 C   0  0  0  0  0  0  0  0  0  0  0  0
   -2.2525   -2.5230    0.0000 H   0  0  0  0  0  0  0  0  0  0  0  0
   -1.8823   -3.1643    0.0000 H   0  0  0  0  0  0  0  0  0  0  0  0
   -1.4289   -1.6500    0.0000 N   0  0  0  0  0  0  0  0  0  0  0  0
   -2.1434   -1.2375    0.0000 C   0  0  0  0  0  0  0  0  0  0  0  0
   -2.8579   -1.6500    0.0000 O   0  0  0  0  0  0  0  0  0  0  0  0
   -2.1434   -0.4125    0.0000 C   0  0  0  0  0  0  0  0  0  0  0  0
   -2.8579    0.0000    0.0000 Cl  0  0  0  0  0  0  0  0  0  0  0  0
   -1.3198   -0.3645    0.0000 H   0  0  0  0  0  0  0  0  0  0  0  0
   -1.6901    0.2768    0.0000 H   0  0  0  0  0  0  0  0  0  0  0  0
   -0.7145   -1.2375    0.0000 C   0  0  0  0  0  0  0  0  0  0  0  0
   -0.3442   -0.5003    0.0000 H   0  0  0  0  0  0  0  0  0  0  0  0
   -1.0847   -0.5003    0.0000 H   0  0  0  0  0  0  0  0  0  0  0  0
    0.0000   -1.6500    0.0000 C   0  0  0  0  0  0  0  0  0  0  0  0
    0.6320   -1.1197    0.0000 H   0  0  0  0  0  0  0  0  0  0  0  0
    0.1433   -0.8375    0.0000 H   0  0  0  0  0  0  0  0  0  0  0  0
    0.7145   -2.0625    0.0000 H   0  0  0  0  0  0  0  0  0  0  0  0
    0.7145   -3.7125    0.0000 H   0  0  0  0  0  0  0  0  0  0  0  0
    1.4289   -1.6500    0.0000 N   0  0  0  0  0  0  0  0  0  0  0  0
    2.9684   -0.4125    0.0000 H   0  0  0  0  0  0  0  0  0  0  0  0
    2.1434    0.4125    0.0000 H   0  0  0  0  0  0  0  0  0  0  0  0
    1.3184   -0.4125    0.0000 H   0  0  0  0  0  0  0  0  0  0  0  0
  1  2  1  0  0  0  0
  2  3  2  0  0  0  0
  3  4  1  0  0  0  0
  3  5  1  0  0  0  0
  5  6  1  0  0  0  0
  6  7  1  0  0  0  0
  6  8  1  0  0  0  0
  6  9  1  0  0  0  0
  5 10  2  0  0  0  0
 10 11  1  0  0  0  0
 11 12  1  0  0  0  0
 12 13  1  0  0  0  0
 13 14  1  0  0  0  0
 14 15  1  0  0  0  0
 14 16  1  0  0  0  0
 14 17  1  0  0  0  0
 17 18  1  0  0  0  0
 17 19  1  0  0  0  0
 17 20  1  0  0  0  0
 20 21  1  0  0  0  0
 21 22  2  0  0  0  0
 21 23  1  0  0  0  0
 23 24  1  0  0  0  0
 23 25  1  0  0  0  0
 23 26  1  0  0  0  0
 20 27  1  0  0  0  0
 27 28  1  0  0  0  0
 27 29  1  0  0  0  0
 27 30  1  0  0  0  0
 13 30  1  0  0  0  0
 30 31  1  0  0  0  0
 30 32  1  0  0  0  0
 13 33  1  0  0  0  0
 12 34  1  0  0  0  0
 11 35  2  0  0  0  0
  2 35  1  0  0  0  0
  1 36  1  0  0  0  0
  1 37  1  0  0  0  0
  1 38  1  0  0  0  0
M  END
> <Potency>
27.5566399208512

> <pIC50>
4.559773738607521

> <Outcome>
Inactive

> <is_active>
0

$$$$

  Mrv1921 08232120312D          

 26 27  0  0  0  0            999 V2000
    0.0000   -1.6500    0.0000 O   0  0  0  0  0  0  0  0  0  0  0  0
    0.7145   -1.2375    0.0000 C   0  0  0  0  0  0  0  0  0  0  0  0
    1.4289   -1.6500    0.0000 N   0  0  0  0  0  0  0  0  0  0  0  0
    1.4289   -2.4750    0.0000 C   0  0  0  0  0  0  0  0  0  0  0  0
    2.1434   -2.8875    0.0000 C   0  0  0  0  0  0  0  0  0  0  0  0
    2.8579   -2.4750    0.0000 H   0  0  0  0  0  0  0  0  0  0  0  0
    2.1434   -3.7125    0.0000 N   0  0  0  0  0  0  0  0  0  0  0  0
    1.4289   -4.1250    0.0000 C   0  0  0  0  0  0  0  0  0  0  0  0
    1.4289   -4.9500    0.0000 H   0  0  0  0  0  0  0  0  0  0  0  0
    0.7145   -3.7125    0.0000 C   0  0  0  0  0  0  0  0  0  0  0  0
    0.0000   -4.1250    0.0000 H   0  0  0  0  0  0  0  0  0  0  0  0
    0.7145   -2.8875    0.0000 C   0  0  0  0  0  0  0  0  0  0  0  0
    0.0000   -2.4750    0.0000 Cl  0  0  0  0  0  0  0  0  0  0  0  0
    2.1434   -1.2375    0.0000 H   0  0  0  0  0  0  0  0  0  0  0  0
    0.7145   -0.4125    0.0000 C   0  0  0  0  0  0  0  0  0  0  0  0
    0.0000    0.0000    0.0000 C   0  0  0  0  0  0  0  0  0  0  0  0
   -0.7145   -0.4125    0.0000 H   0  0  0  0  0  0  0  0  0  0  0  0
    0.0000    0.8250    0.0000 C   0  0  0  0  0  0  0  0  0  0  0  0
   -0.7145    1.2375    0.0000 Cl  0  0  0  0  0  0  0  0  0  0  0  0
    0.7145    1.2375    0.0000 C   0  0  0  0  0  0  0  0  0  0  0  0
    0.7145    2.0625    0.0000 H   0  0  0  0  0  0  0  0  0  0  0  0
    1.4289    0.8250    0.0000 C   0  0  0  0  0  0  0  0  0  0  0  0
    2.1434    1.2375    0.0000 H   0  0  0  0  0  0  0  0  0  0  0  0
    1.4289    0.0000    0.0000 C   0  0  0  0  0  0  0  0  0  0  0  0
    2.1434   -0.4125    0.0000 O   0  0  0  0  0  0  0  0  0  0  0  0
    2.8579   -0.0000    0.0000 H   0  0  0  0  0  0  0  0  0  0  0  0
  1  2  2  0  0  0  0
  2  3  1  0  0  0  0
  3  4  1  0  0  0  0
  4  5  2  0  0  0  0
  5  6  1  0  0  0  0
  5  7  1  0  0  0  0
  7  8  2  0  0  0  0
  8  9  1  0  0  0  0
  8 10  1  0  0  0  0
 10 11  1  0  0  0  0
 10 12  2  0  0  0  0
  4 12  1  0  0  0  0
 12 13  1  0  0  0  0
  3 14  1  0  0  0  0
  2 15  1  0  0  0  0
 15 16  2  0  0  0  0
 16 17  1  0  0  0  0
 16 18  1  0  0  0  0
 18 19  1  0  0  0  0
 18 20  2  0  0  0  0
 20 21  1  0  0  0  0
 20 22  1  0  0  0  0
 22 23  1  0  0  0  0
 22 24  2  0  0  0  0
 15 24  1  0  0  0  0
 24 25  1  0  0  0  0
 25 26  1  0  0  0  0
M  END
> <Potency>
24.1845155987681

> <pIC50>
4.616462606844426

> <Outcome>
Inactive

> <is_active>
0

$$$$

  Mrv1921 08232120312D          

 35 37  0  0  0  0            999 V2000
    5.7158    0.8250    0.0000 O   0  0  0  0  0  0  0  0  0  0  0  0
    5.0013    1.2375    0.0000 C   0  0  0  0  0  0  0  0  0  0  0  0
    4.2868    0.8250    0.0000 N   0  0  0  0  0  0  0  0  0  0  0  0
    4.2868    0.0000    0.0000 C   0  0  0  0  0  0  0  0  0  0  0  0
    5.0013   -0.4125    0.0000 C   0  0  0  0  0  0  0  0  0  0  0  0
    5.7158   -0.0000    0.0000 H   0  0  0  0  0  0  0  0  0  0  0  0
    5.0013   -1.2375    0.0000 C   0  0  0  0  0  0  0  0  0  0  0  0
    5.7158   -1.6500    0.0000 H   0  0  0  0  0  0  0  0  0  0  0  0
    4.2868   -1.6500    0.0000 C   0  0  0  0  0  0  0  0  0  0  0  0
    4.2868   -2.4750    0.0000 H   0  0  0  0  0  0  0  0  0  0  0  0
    3.5724   -1.2375    0.0000 N   0  0  0  0  0  0  0  0  0  0  0  0
    3.5724   -0.4125    0.0000 C   0  0  0  0  0  0  0  0  0  0  0  0
    2.8579    0.0000    0.0000 H   0  0  0  0  0  0  0  0  0  0  0  0
    3.5724    1.2375    0.0000 H   0  0  0  0  0  0  0  0  0  0  0  0
    5.0013    2.0625    0.0000 C   0  0  0  0  0  0  0  0  0  0  0  0
    4.2868    2.4750    0.0000 C   0  0  0  0  0  0  0  0  0  0  0  0
    3.5724    2.0625    0.0000 H   0  0  0  0  0  0  0  0  0  0  0  0
    4.2868    3.3000    0.0000 C   0  0  0  0  0  0  0  0  0  0  0  0
    3.5724    3.7125    0.0000 Cl  0  0  0  0  0  0  0  0  0  0  0  0
    5.0013    3.7125    0.0000 C   0  0  0  0  0  0  0  0  0  0  0  0
    5.0013    4.5375    0.0000 H   0  0  0  0  0  0  0  0  0  0  0  0
    5.7158    3.3000    0.0000 C   0  0  0  0  0  0  0  0  0  0  0  0
    6.4302    3.7125    0.0000 H   0  0  0  0  0  0  0  0  0  0  0  0
    5.7158    2.4750    0.0000 C   0  0  0  0  0  0  0  0  0  0  0  0
    6.4302    2.0625    0.0000 C   0  0  0  0  0  0  0  0  0  0  0  0
    7.1447    2.4750    0.0000 C   0  0  0  0  0  0  0  0  0  0  0  0
    7.1447    3.3000    0.0000 H   0  0  0  0  0  0  0  0  0  0  0  0
    7.8592    2.0625    0.0000 C   0  0  0  0  0  0  0  0  0  0  0  0
    8.5737    2.4750    0.0000 H   0  0  0  0  0  0  0  0  0  0  0  0
    7.8592    1.2375    0.0000 C   0  0  0  0  0  0  0  0  0  0  0  0
    8.5737    0.8250    0.0000 H   0  0  0  0  0  0  0  0  0  0  0  0
    7.1447    0.8250    0.0000 C   0  0  0  0  0  0  0  0  0  0  0  0
    7.1447    0.0000    0.0000 H   0  0  0  0  0  0  0  0  0  0  0  0
    6.4302    1.2375    0.0000 C   0  0  0  0  0  0  0  0  0  0  0  0
    5.7158    1.6500    0.0000 H   0  0  0  0  0  0  0  0  0  0  0  0
  1  2  2  0  0  0  0
  2  3  1  0  0  0  0
  3  4  1  0  0  0  0
  4  5  2  0  0  0  0
  5  6  1  0  0  0  0
  5  7  1  0  0  0  0
  7  8  1  0  0  0  0
  7  9  2  0  0  0  0
  9 10  1  0  0  0  0
  9 11  1  0  0  0  0
 11 12  2  0  0  0  0
  4 12  1  0  0  0  0
 12 13  1  0  0  0  0
  3 14  1  0  0  0  0
  2 15  1  0  0  0  0
 15 16  2  0  0  0  0
 16 17  1  0  0  0  0
 16 18  1  0  0  0  0
 18 19  1  0  0  0  0
 18 20  2  0  0  0  0
 20 21  1  0  0  0  0
 20 22  1  0  0  0  0
 22 23  1  0  0  0  0
 22 24  2  0  0  0  0
 15 24  1  0  0  0  0
 24 25  1  0  0  0  0
 25 26  2  0  0  0  0
 26 27  1  0  0  0  0
 26 28  1  0  0  0  0
 28 29  1  0  0  0  0
 28 30  2  0  0  0  0
 30 31  1  0  0  0  0
 30 32  1  0  0  0  0
 32 33  1  0  0  0  0
 32 34  2  0  0  0  0
 25 34  1  0  0  0  0
 34 35  1  0  0  0  0
M  END
> <Potency>
39.068781630213

> <pIC50>
4.40817013214675

> <Outcome>
Inactive

> <is_active>
0

$$$$

  Mrv1921 08232120312D          

 37 38  0  0  0  0            999 V2000
    2.8579   -0.8250    0.0000 C   0  0  0  0  0  0  0  0  0  0  0  0
    2.1434   -1.2375    0.0000 S   0  0  0  0  0  0  0  0  0  0  0  0
    1.7309   -0.5230    0.0000 O   0  0  0  0  0  0  0  0  0  0  0  0
    2.5559   -1.9520    0.0000 O   0  0  0  0  0  0  0  0  0  0  0  0
    1.4289   -1.6500    0.0000 N   0  0  0  0  0  0  0  0  0  0  0  0
    1.4289   -2.4750    0.0000 C   0  0  0  0  0  0  0  0  0  0  0  0
    1.8823   -3.1643    0.0000 H   0  0  0  0  0  0  0  0  0  0  0  0
    2.2525   -2.5230    0.0000 H   0  0  0  0  0  0  0  0  0  0  0  0
    0.7145   -2.8875    0.0000 C   0  0  0  0  0  0  0  0  0  0  0  0
    0.3442   -3.6247    0.0000 H   0  0  0  0  0  0  0  0  0  0  0  0
    1.0847   -3.6247    0.0000 H   0  0  0  0  0  0  0  0  0  0  0  0
    0.0000   -2.4750    0.0000 N   0  0  0  0  0  0  0  0  0  0  0  0
   -0.7145   -2.8875    0.0000 C   0  0  0  0  0  0  0  0  0  0  0  0
   -1.4289   -2.4750    0.0000 O   0  0  0  0  0  0  0  0  0  0  0  0
   -0.7145   -3.7125    0.0000 C   0  0  0  0  0  0  0  0  0  0  0  0
   -1.4289   -4.1250    0.0000 Cl  0  0  0  0  0  0  0  0  0  0  0  0
   -0.2611   -4.4018    0.0000 H   0  0  0  0  0  0  0  0  0  0  0  0
    0.1091   -3.7605    0.0000 H   0  0  0  0  0  0  0  0  0  0  0  0
    0.0000   -1.6500    0.0000 C   0  0  0  0  0  0  0  0  0  0  0  0
   -0.4533   -0.9607    0.0000 H   0  0  0  0  0  0  0  0  0  0  0  0
   -0.8236   -1.6020    0.0000 H   0  0  0  0  0  0  0  0  0  0  0  0
    0.7145   -1.2375    0.0000 C   0  0  0  0  0  0  0  0  0  0  0  0
    0.7145   -0.4125    0.0000 C   0  0  0  0  0  0  0  0  0  0  0  0
    0.0000    0.0000    0.0000 C   0  0  0  0  0  0  0  0  0  0  0  0
   -0.7145   -0.4125    0.0000 H   0  0  0  0  0  0  0  0  0  0  0  0
    0.0000    0.8250    0.0000 C   0  0  0  0  0  0  0  0  0  0  0  0
   -0.7145    1.2375    0.0000 H   0  0  0  0  0  0  0  0  0  0  0  0
    0.7145    1.2375    0.0000 C   0  0  0  0  0  0  0  0  0  0  0  0
    0.7145    2.0625    0.0000 H   0  0  0  0  0  0  0  0  0  0  0  0
    1.4289    0.8250    0.0000 C   0  0  0  0  0  0  0  0  0  0  0  0
    2.1434    1.2375    0.0000 H   0  0  0  0  0  0  0  0  0  0  0  0
    1.4289    0.0000    0.0000 C   0  0  0  0  0  0  0  0  0  0  0  0
    2.2258    0.2135    0.0000 H   0  0  0  0  0  0  0  0  0  0  0  0
    1.4289   -0.8250    0.0000 H   0  0  0  0  0  0  0  0  0  0  0  0
    3.2704   -1.5395    0.0000 H   0  0  0  0  0  0  0  0  0  0  0  0
    3.5724   -0.4125    0.0000 H   0  0  0  0  0  0  0  0  0  0  0  0
    2.4454   -0.1105    0.0000 H   0  0  0  0  0  0  0  0  0  0  0  0
  1  2  1  0  0  0  0
  2  3  2  0  0  0  0
  2  4  2  0  0  0  0
  2  5  1  0  0  0  0
  5  6  1  0  0  0  0
  6  7  1  0  0  0  0
  6  8  1  0  0  0  0
  6  9  1  0  0  0  0
  9 10  1  0  0  0  0
  9 11  1  0  0  0  0
  9 12  1  0  0  0  0
 12 13  1  0  0  0  0
 13 14  2  0  0  0  0
 13 15  1  0  0  0  0
 15 16  1  0  0  0  0
 15 17  1  0  0  0  0
 15 18  1  0  0  0  0
 12 19  1  0  0  0  0
 19 20  1  0  0  0  0
 19 21  1  0  0  0  0
 19 22  1  0  0  0  0
  5 22  1  0  0  0  0
 22 23  1  0  0  0  0
 23 24  2  0  0  0  0
 24 25  1  0  0  0  0
 24 26  1  0  0  0  0
 26 27  1  0  0  0  0
 26 28  2  0  0  0  0
 28 29  1  0  0  0  0
 28 30  1  0  0  0  0
 30 31  1  0  0  0  0
 30 32  2  0  0  0  0
 23 32  1  0  0  0  0
 32 33  1  0  0  0  0
 22 34  1  0  0  0  0
  1 35  1  0  0  0  0
  1 36  1  0  0  0  0
  1 37  1  0  0  0  0
M  END
> <Potency>
10.562354385868

> <pIC50>
4.976239265246978

> <Outcome>
Inactive

> <is_active>
0

$$$$

  Mrv1921 08232120312D          

 42 44  0  0  0  0            999 V2000
   -0.1712   -2.1269    0.0000 O   0  0  0  0  0  0  0  0  0  0  0  0
   -0.5837   -1.4124    0.0000 C   0  0  0  0  0  0  0  0  0  0  0  0
   -1.4087   -1.4124    0.0000 C   0  0  0  0  0  0  0  0  0  0  0  0
   -1.8212   -2.1269    0.0000 Cl  0  0  0  0  0  0  0  0  0  0  0  0
   -1.4567   -0.5888    0.0000 H   0  0  0  0  0  0  0  0  0  0  0  0
   -2.0980   -0.9591    0.0000 H   0  0  0  0  0  0  0  0  0  0  0  0
   -0.1712   -0.6979    0.0000 N   0  0  0  0  0  0  0  0  0  0  0  0
    0.6538   -0.6979    0.0000 C   0  0  0  0  0  0  0  0  0  0  0  0
    1.1387   -0.0305    0.0000 N   0  0  0  0  0  0  0  0  0  0  0  0
    1.9233   -0.2854    0.0000 C   0  0  0  0  0  0  0  0  0  0  0  0
    2.6378    0.1271    0.0000 C   0  0  0  0  0  0  0  0  0  0  0  0
    2.6378    0.9521    0.0000 S   0  0  0  0  0  0  0  0  0  0  0  0
    3.4628    0.9521    0.0000 O   0  0  0  0  0  0  0  0  0  0  0  0
    1.8128    0.9521    0.0000 O   0  0  0  0  0  0  0  0  0  0  0  0
    2.6378    1.7771    0.0000 N   0  0  0  0  0  0  0  0  0  0  0  0
    3.3523    2.1896    0.0000 C   0  0  0  0  0  0  0  0  0  0  0  0
    3.3523    3.0146    0.0000 C   0  0  0  0  0  0  0  0  0  0  0  0
    4.0668    3.4271    0.0000 C   0  0  0  0  0  0  0  0  0  0  0  0
    4.0668    4.2521    0.0000 C   0  0  0  0  0  0  0  0  0  0  0  0
    3.3523    4.6646    0.0000 H   0  0  0  0  0  0  0  0  0  0  0  0
    4.7812    4.6646    0.0000 C   0  0  0  0  0  0  0  0  0  0  0  0
    4.7812    5.4896    0.0000 H   0  0  0  0  0  0  0  0  0  0  0  0
    5.4957    4.2521    0.0000 C   0  0  0  0  0  0  0  0  0  0  0  0
    6.2102    4.6646    0.0000 H   0  0  0  0  0  0  0  0  0  0  0  0
    5.4957    3.4271    0.0000 C   0  0  0  0  0  0  0  0  0  0  0  0
    6.2102    3.0146    0.0000 H   0  0  0  0  0  0  0  0  0  0  0  0
    4.7812    3.0146    0.0000 C   0  0  0  0  0  0  0  0  0  0  0  0
    4.7812    2.1896    0.0000 H   0  0  0  0  0  0  0  0  0  0  0  0
    2.8989    3.7038    0.0000 H   0  0  0  0  0  0  0  0  0  0  0  0
    2.5287    3.0625    0.0000 H   0  0  0  0  0  0  0  0  0  0  0  0
    3.8056    1.5003    0.0000 H   0  0  0  0  0  0  0  0  0  0  0  0
    4.1759    2.1416    0.0000 H   0  0  0  0  0  0  0  0  0  0  0  0
    1.9233    2.1896    0.0000 H   0  0  0  0  0  0  0  0  0  0  0  0
    3.3523   -0.2854    0.0000 C   0  0  0  0  0  0  0  0  0  0  0  0
    3.3523   -1.1104    0.0000 C   0  0  0  0  0  0  0  0  0  0  0  0
    2.6378   -1.5229    0.0000 C   0  0  0  0  0  0  0  0  0  0  0  0
    2.6378   -2.3479    0.0000 H   0  0  0  0  0  0  0  0  0  0  0  0
    1.9233   -1.1104    0.0000 C   0  0  0  0  0  0  0  0  0  0  0  0
    1.1387   -1.3654    0.0000 S   0  0  0  0  0  0  0  0  0  0  0  0
    4.0668   -1.5229    0.0000 H   0  0  0  0  0  0  0  0  0  0  0  0
    4.0668    0.1271    0.0000 H   0  0  0  0  0  0  0  0  0  0  0  0
   -0.5837    0.0165    0.0000 H   0  0  0  0  0  0  0  0  0  0  0  0
  1  2  2  0  0  0  0
  2  3  1  0  0  0  0
  3  4  1  0  0  0  0
  3  5  1  0  0  0  0
  3  6  1  0  0  0  0
  2  7  1  0  0  0  0
  7  8  1  0  0  0  0
  8  9  2  0  0  0  0
  9 10  1  0  0  0  0
 10 11  2  0  0  0  0
 11 12  1  0  0  0  0
 12 13  2  0  0  0  0
 12 14  2  0  0  0  0
 12 15  1  0  0  0  0
 15 16  1  0  0  0  0
 16 17  1  0  0  0  0
 17 18  1  0  0  0  0
 18 19  2  0  0  0  0
 19 20  1  0  0  0  0
 19 21  1  0  0  0  0
 21 22  1  0  0  0  0
 21 23  2  0  0  0  0
 23 24  1  0  0  0  0
 23 25  1  0  0  0  0
 25 26  1  0  0  0  0
 25 27  2  0  0  0  0
 18 27  1  0  0  0  0
 27 28  1  0  0  0  0
 17 29  1  0  0  0  0
 17 30  1  0  0  0  0
 16 31  1  0  0  0  0
 16 32  1  0  0  0  0
 15 33  1  0  0  0  0
 11 34  1  0  0  0  0
 34 35  2  0  0  0  0
 35 36  1  0  0  0  0
 36 37  1  0  0  0  0
 36 38  2  0  0  0  0
 10 38  1  0  0  0  0
 38 39  1  0  0  0  0
  8 39  1  0  0  0  0
 35 40  1  0  0  0  0
 34 41  1  0  0  0  0
  7 42  1  0  0  0  0
M  END
> <Potency>
13.878305297888

> <pIC50>
4.8576635630390115

> <Outcome>
Inactive

> <is_active>
0

$$$$

  Mrv1921 08232120312D          

 51 53  0  0  0  0            999 V2000
    2.7791   -0.8221    0.0000 C   0  0  0  0  0  0  0  0  0  0  0  0
    3.4935   -0.4096    0.0000 C   0  0  0  0  0  0  0  0  0  0  0  0
    3.4935    0.4154    0.0000 O   0  0  0  0  0  0  0  0  0  0  0  0
    4.2080   -0.8221    0.0000 N   0  0  0  0  0  0  0  0  0  0  0  0
    4.9225   -0.4096    0.0000 C   0  0  0  0  0  0  0  0  0  0  0  0
    5.6370   -0.8221    0.0000 C   0  0  0  0  0  0  0  0  0  0  0  0
    6.3514   -0.4096    0.0000 C   0  0  0  0  0  0  0  0  0  0  0  0
    6.4377    0.4109    0.0000 C   0  0  0  0  0  0  0  0  0  0  0  0
    5.8246    0.9629    0.0000 H   0  0  0  0  0  0  0  0  0  0  0  0
    7.2446    0.5824    0.0000 N   0  0  0  0  0  0  0  0  0  0  0  0
    7.5802    1.3361    0.0000 H   0  0  0  0  0  0  0  0  0  0  0  0
    7.6571   -0.1320    0.0000 C   0  0  0  0  0  0  0  0  0  0  0  0
    8.4641   -0.3036    0.0000 C   0  0  0  0  0  0  0  0  0  0  0  0
    9.0161    0.3095    0.0000 C   0  0  0  0  0  0  0  0  0  0  0  0
    9.8231    0.1380    0.0000 N   0  0  0  0  0  0  0  0  0  0  0  0
   10.3751    0.7511    0.0000 C   0  0  0  0  0  0  0  0  0  0  0  0
   10.4995    1.5667    0.0000 H   0  0  0  0  0  0  0  0  0  0  0  0
    9.7952    1.3378    0.0000 H   0  0  0  0  0  0  0  0  0  0  0  0
   11.1821    0.5796    0.0000 C   0  0  0  0  0  0  0  0  0  0  0  0
   11.9506    0.8797    0.0000 H   0  0  0  0  0  0  0  0  0  0  0  0
   11.4003    1.3752    0.0000 H   0  0  0  0  0  0  0  0  0  0  0  0
   11.4371   -0.2051    0.0000 N   0  0  0  0  0  0  0  0  0  0  0  0
   12.2440   -0.3766    0.0000 C   0  0  0  0  0  0  0  0  0  0  0  0
   12.7961    0.2365    0.0000 O   0  0  0  0  0  0  0  0  0  0  0  0
   12.4990   -1.1612    0.0000 C   0  0  0  0  0  0  0  0  0  0  0  0
   13.3059   -1.3327    0.0000 Cl  0  0  0  0  0  0  0  0  0  0  0  0
   11.7305   -1.4613    0.0000 H   0  0  0  0  0  0  0  0  0  0  0  0
   12.2808   -1.9568    0.0000 H   0  0  0  0  0  0  0  0  0  0  0  0
   10.8850   -0.8181    0.0000 C   0  0  0  0  0  0  0  0  0  0  0  0
   10.7607   -1.6337    0.0000 H   0  0  0  0  0  0  0  0  0  0  0  0
   11.4650   -1.4049    0.0000 H   0  0  0  0  0  0  0  0  0  0  0  0
   10.0780   -0.6466    0.0000 C   0  0  0  0  0  0  0  0  0  0  0  0
    9.3096   -0.9467    0.0000 H   0  0  0  0  0  0  0  0  0  0  0  0
    9.8599   -1.4423    0.0000 H   0  0  0  0  0  0  0  0  0  0  0  0
    9.1405    1.1251    0.0000 H   0  0  0  0  0  0  0  0  0  0  0  0
    8.4362    0.8963    0.0000 H   0  0  0  0  0  0  0  0  0  0  0  0
    8.7190   -1.0882    0.0000 C   0  0  0  0  0  0  0  0  0  0  0  0
    8.1670   -1.7013    0.0000 C   0  0  0  0  0  0  0  0  0  0  0  0
    7.3600   -1.5298    0.0000 C   0  0  0  0  0  0  0  0  0  0  0  0
    6.8080   -2.1428    0.0000 H   0  0  0  0  0  0  0  0  0  0  0  0
    7.1051   -0.7451    0.0000 C   0  0  0  0  0  0  0  0  0  0  0  0
    8.4220   -2.4859    0.0000 H   0  0  0  0  0  0  0  0  0  0  0  0
    9.1407   -1.7973    0.0000 H   0  0  0  0  0  0  0  0  0  0  0  0
    5.2667   -1.5593    0.0000 H   0  0  0  0  0  0  0  0  0  0  0  0
    6.0072   -1.5593    0.0000 H   0  0  0  0  0  0  0  0  0  0  0  0
    5.2927    0.3277    0.0000 H   0  0  0  0  0  0  0  0  0  0  0  0
    4.5522    0.3277    0.0000 H   0  0  0  0  0  0  0  0  0  0  0  0
    4.2080   -1.6471    0.0000 H   0  0  0  0  0  0  0  0  0  0  0  0
    2.3666   -0.1076    0.0000 H   0  0  0  0  0  0  0  0  0  0  0  0
    2.0646   -1.2346    0.0000 H   0  0  0  0  0  0  0  0  0  0  0  0
    3.1916   -1.5365    0.0000 H   0  0  0  0  0  0  0  0  0  0  0  0
  1  2  1  0  0  0  0
  2  3  2  0  0  0  0
  2  4  1  0  0  0  0
  4  5  1  0  0  0  0
  5  6  1  0  0  0  0
  6  7  1  0  0  0  0
  7  8  2  0  0  0  0
  8  9  1  0  0  0  0
  8 10  1  0  0  0  0
 10 11  1  0  0  0  0
 10 12  1  0  0  0  0
 12 13  2  0  0  0  0
 13 14  1  0  0  0  0
 14 15  1  0  0  0  0
 15 16  1  0  0  0  0
 16 17  1  0  0  0  0
 16 18  1  0  0  0  0
 16 19  1  0  0  0  0
 19 20  1  0  0  0  0
 19 21  1  0  0  0  0
 19 22  1  0  0  0  0
 22 23  1  0  0  0  0
 23 24  2  0  0  0  0
 23 25  1  0  0  0  0
 25 26  1  0  0  0  0
 25 27  1  0  0  0  0
 25 28  1  0  0  0  0
 22 29  1  0  0  0  0
 29 30  1  0  0  0  0
 29 31  1  0  0  0  0
 29 32  1  0  0  0  0
 15 32  1  0  0  0  0
 32 33  1  0  0  0  0
 32 34  1  0  0  0  0
 14 35  1  0  0  0  0
 14 36  1  0  0  0  0
 13 37  1  0  0  0  0
 37 38  2  0  0  0  0
 38 39  1  0  0  0  0
 39 40  1  0  0  0  0
 39 41  2  0  0  0  0
  7 41  1  0  0  0  0
 12 41  1  0  0  0  0
 38 42  1  0  0  0  0
 37 43  1  0  0  0  0
  6 44  1  0  0  0  0
  6 45  1  0  0  0  0
  5 46  1  0  0  0  0
  5 47  1  0  0  0  0
  4 48  1  0  0  0  0
  1 49  1  0  0  0  0
  1 50  1  0  0  0  0
  1 51  1  0  0  0  0
M  END
> <Potency>
17.3608297519836

> <pIC50>
4.760429521780716

> <Outcome>
Inactive

> <is_active>
0

$$$$

  Mrv1921 08232120312D          

 31 32  0  0  0  0            999 V2000
    2.8579   -1.6500    0.0000 C   0  0  0  0  0  0  0  0  0  0  0  0
    2.8579   -2.4750    0.0000 C   0  0  0  0  0  0  0  0  0  0  0  0
    3.5724   -2.8875    0.0000 C   0  0  0  0  0  0  0  0  0  0  0  0
    4.3974   -2.8875    0.0000 H   0  0  0  0  0  0  0  0  0  0  0  0
    3.5724   -3.7125    0.0000 C   0  0  0  0  0  0  0  0  0  0  0  0
    4.2868   -4.1250    0.0000 H   0  0  0  0  0  0  0  0  0  0  0  0
    2.8579   -4.1250    0.0000 N   0  0  0  0  0  0  0  0  0  0  0  0
    2.1434   -3.7125    0.0000 C   0  0  0  0  0  0  0  0  0  0  0  0
    1.4289   -4.1250    0.0000 H   0  0  0  0  0  0  0  0  0  0  0  0
    2.1434   -2.8875    0.0000 C   0  0  0  0  0  0  0  0  0  0  0  0
    1.4289   -2.4750    0.0000 N   0  0  0  0  0  0  0  0  0  0  0  0
    1.4289   -1.6500    0.0000 C   0  0  0  0  0  0  0  0  0  0  0  0
    2.1434   -1.2375    0.0000 O   0  0  0  0  0  0  0  0  0  0  0  0
    0.7145   -1.2375    0.0000 C   0  0  0  0  0  0  0  0  0  0  0  0
    0.7145   -0.4125    0.0000 C   0  0  0  0  0  0  0  0  0  0  0  0
    0.0000    0.0000    0.0000 C   0  0  0  0  0  0  0  0  0  0  0  0
   -0.7145   -0.4125    0.0000 H   0  0  0  0  0  0  0  0  0  0  0  0
    0.0000    0.8250    0.0000 C   0  0  0  0  0  0  0  0  0  0  0  0
   -0.7145    1.2375    0.0000 H   0  0  0  0  0  0  0  0  0  0  0  0
    0.7145    1.2375    0.0000 C   0  0  0  0  0  0  0  0  0  0  0  0
    0.7145    2.0625    0.0000 H   0  0  0  0  0  0  0  0  0  0  0  0
    1.4289    0.8250    0.0000 C   0  0  0  0  0  0  0  0  0  0  0  0
    2.1434    1.2375    0.0000 Cl  0  0  0  0  0  0  0  0  0  0  0  0
    1.4289    0.0000    0.0000 C   0  0  0  0  0  0  0  0  0  0  0  0
    2.1434   -0.4125    0.0000 H   0  0  0  0  0  0  0  0  0  0  0  0
   -0.1091   -1.2855    0.0000 H   0  0  0  0  0  0  0  0  0  0  0  0
    0.2611   -1.9268    0.0000 H   0  0  0  0  0  0  0  0  0  0  0  0
    0.7145   -2.8875    0.0000 H   0  0  0  0  0  0  0  0  0  0  0  0
    3.5724   -2.0625    0.0000 H   0  0  0  0  0  0  0  0  0  0  0  0
    3.5724   -1.2375    0.0000 H   0  0  0  0  0  0  0  0  0  0  0  0
    2.8579   -0.8250    0.0000 H   0  0  0  0  0  0  0  0  0  0  0  0
  1  2  1  0  0  0  0
  2  3  2  0  0  0  0
  3  4  1  0  0  0  0
  3  5  1  0  0  0  0
  5  6  1  0  0  0  0
  5  7  2  0  0  0  0
  7  8  1  0  0  0  0
  8  9  1  0  0  0  0
  8 10  2  0  0  0  0
  2 10  1  0  0  0  0
 10 11  1  0  0  0  0
 11 12  1  0  0  0  0
 12 13  2  0  0  0  0
 12 14  1  0  0  0  0
 14 15  1  0  0  0  0
 15 16  2  0  0  0  0
 16 17  1  0  0  0  0
 16 18  1  0  0  0  0
 18 19  1  0  0  0  0
 18 20  2  0  0  0  0
 20 21  1  0  0  0  0
 20 22  1  0  0  0  0
 22 23  1  0  0  0  0
 22 24  2  0  0  0  0
 15 24  1  0  0  0  0
 24 25  1  0  0  0  0
 14 26  1  0  0  0  0
 14 27  1  0  0  0  0
 11 28  1  0  0  0  0
  1 29  1  0  0  0  0
  1 30  1  0  0  0  0
  1 31  1  0  0  0  0
M  END
> <Potency>
24.5666191954425

> <pIC50>
4.609654606067284

> <Outcome>
Inactive

> <is_active>
0

$$$$

  Mrv1921 08232120312D          

 30 31  0  0  0  0            999 V2000
    2.8579   -1.6500    0.0000 C   0  0  0  0  0  0  0  0  0  0  0  0
    2.8579   -2.4750    0.0000 C   0  0  0  0  0  0  0  0  0  0  0  0
    3.5724   -2.8875    0.0000 C   0  0  0  0  0  0  0  0  0  0  0  0
    4.3974   -2.8875    0.0000 H   0  0  0  0  0  0  0  0  0  0  0  0
    3.5724   -3.7125    0.0000 C   0  0  0  0  0  0  0  0  0  0  0  0
    4.2868   -4.1250    0.0000 H   0  0  0  0  0  0  0  0  0  0  0  0
    2.8579   -4.1250    0.0000 N   0  0  0  0  0  0  0  0  0  0  0  0
    2.1434   -3.7125    0.0000 C   0  0  0  0  0  0  0  0  0  0  0  0
    1.4289   -4.1250    0.0000 H   0  0  0  0  0  0  0  0  0  0  0  0
    2.1434   -2.8875    0.0000 C   0  0  0  0  0  0  0  0  0  0  0  0
    1.4289   -2.4750    0.0000 N   0  0  0  0  0  0  0  0  0  0  0  0
    1.4289   -1.6500    0.0000 C   0  0  0  0  0  0  0  0  0  0  0  0
    2.1434   -1.2375    0.0000 O   0  0  0  0  0  0  0  0  0  0  0  0
    0.7145   -1.2375    0.0000 N   0  0  0  0  0  0  0  0  0  0  0  0
    0.7145   -0.4125    0.0000 C   0  0  0  0  0  0  0  0  0  0  0  0
    0.0000    0.0000    0.0000 C   0  0  0  0  0  0  0  0  0  0  0  0
   -0.7145   -0.4125    0.0000 H   0  0  0  0  0  0  0  0  0  0  0  0
    0.0000    0.8250    0.0000 C   0  0  0  0  0  0  0  0  0  0  0  0
   -0.7145    1.2375    0.0000 H   0  0  0  0  0  0  0  0  0  0  0  0
    0.7145    1.2375    0.0000 C   0  0  0  0  0  0  0  0  0  0  0  0
    0.7145    2.0625    0.0000 H   0  0  0  0  0  0  0  0  0  0  0  0
    1.4289    0.8250    0.0000 C   0  0  0  0  0  0  0  0  0  0  0  0
    2.1434    1.2375    0.0000 Cl  0  0  0  0  0  0  0  0  0  0  0  0
    1.4289    0.0000    0.0000 C   0  0  0  0  0  0  0  0  0  0  0  0
    2.1434   -0.4125    0.0000 H   0  0  0  0  0  0  0  0  0  0  0  0
    0.0000   -1.6500    0.0000 H   0  0  0  0  0  0  0  0  0  0  0  0
    0.7145   -2.8875    0.0000 H   0  0  0  0  0  0  0  0  0  0  0  0
    3.5724   -2.0625    0.0000 H   0  0  0  0  0  0  0  0  0  0  0  0
    3.5724   -1.2375    0.0000 H   0  0  0  0  0  0  0  0  0  0  0  0
    2.8579   -0.8250    0.0000 H   0  0  0  0  0  0  0  0  0  0  0  0
  1  2  1  0  0  0  0
  2  3  2  0  0  0  0
  3  4  1  0  0  0  0
  3  5  1  0  0  0  0
  5  6  1  0  0  0  0
  5  7  2  0  0  0  0
  7  8  1  0  0  0  0
  8  9  1  0  0  0  0
  8 10  2  0  0  0  0
  2 10  1  0  0  0  0
 10 11  1  0  0  0  0
 11 12  1  0  0  0  0
 12 13  2  0  0  0  0
 12 14  1  0  0  0  0
 14 15  1  0  0  0  0
 15 16  2  0  0  0  0
 16 17  1  0  0  0  0
 16 18  1  0  0  0  0
 18 19  1  0  0  0  0
 18 20  2  0  0  0  0
 20 21  1  0  0  0  0
 20 22  1  0  0  0  0
 22 23  1  0  0  0  0
 22 24  2  0  0  0  0
 15 24  1  0  0  0  0
 24 25  1  0  0  0  0
 14 26  1  0  0  0  0
 11 27  1  0  0  0  0
  1 28  1  0  0  0  0
  1 29  1  0  0  0  0
  1 30  1  0  0  0  0
M  END
> <Potency>
64.4136105144302

> <pIC50>
4.191022357069093

> <Outcome>
Inactive

> <is_active>
0

$$$$

  Mrv1921 08232120312D          

 34 35  0  0  0  0            999 V2000
    2.8579   -1.6500    0.0000 C   0  0  0  0  0  0  0  0  0  0  0  0
    2.8579   -2.4750    0.0000 C   0  0  0  0  0  0  0  0  0  0  0  0
    3.5724   -2.8875    0.0000 C   0  0  0  0  0  0  0  0  0  0  0  0
    4.3974   -2.8875    0.0000 H   0  0  0  0  0  0  0  0  0  0  0  0
    3.5724   -3.7125    0.0000 C   0  0  0  0  0  0  0  0  0  0  0  0
    4.2868   -4.1250    0.0000 H   0  0  0  0  0  0  0  0  0  0  0  0
    2.8579   -4.1250    0.0000 N   0  0  0  0  0  0  0  0  0  0  0  0
    2.1434   -3.7125    0.0000 C   0  0  0  0  0  0  0  0  0  0  0  0
    1.4289   -4.1250    0.0000 H   0  0  0  0  0  0  0  0  0  0  0  0
    2.1434   -2.8875    0.0000 C   0  0  0  0  0  0  0  0  0  0  0  0
    1.4289   -2.4750    0.0000 N   0  0  0  0  0  0  0  0  0  0  0  0
    1.4289   -1.6500    0.0000 C   0  0  0  0  0  0  0  0  0  0  0  0
    2.1434   -1.2375    0.0000 O   0  0  0  0  0  0  0  0  0  0  0  0
    0.7145   -1.2375    0.0000 C   0  0  0  0  0  0  0  0  0  0  0  0
    0.0000   -1.6500    0.0000 C   0  0  0  0  0  0  0  0  0  0  0  0
   -0.2135   -0.8531    0.0000 H   0  0  0  0  0  0  0  0  0  0  0  0
   -0.8250   -1.6500    0.0000 H   0  0  0  0  0  0  0  0  0  0  0  0
   -0.2135   -2.4469    0.0000 H   0  0  0  0  0  0  0  0  0  0  0  0
    0.7145   -0.4125    0.0000 C   0  0  0  0  0  0  0  0  0  0  0  0
    0.0000    0.0000    0.0000 C   0  0  0  0  0  0  0  0  0  0  0  0
   -0.8188    0.1009    0.0000 H   0  0  0  0  0  0  0  0  0  0  0  0
    0.0000    0.8250    0.0000 C   0  0  0  0  0  0  0  0  0  0  0  0
   -0.7145    1.2375    0.0000 H   0  0  0  0  0  0  0  0  0  0  0  0
    0.7145    1.2375    0.0000 C   0  0  0  0  0  0  0  0  0  0  0  0
    0.7145    2.0625    0.0000 H   0  0  0  0  0  0  0  0  0  0  0  0
    1.4289    0.8250    0.0000 C   0  0  0  0  0  0  0  0  0  0  0  0
    2.1434    1.2375    0.0000 Cl  0  0  0  0  0  0  0  0  0  0  0  0
    1.4289    0.0000    0.0000 C   0  0  0  0  0  0  0  0  0  0  0  0
    2.1434   -0.4125    0.0000 H   0  0  0  0  0  0  0  0  0  0  0  0
    0.7145   -2.0625    0.0000 H   0  0  0  0  0  0  0  0  0  0  0  0
    0.7145   -2.8875    0.0000 H   0  0  0  0  0  0  0  0  0  0  0  0
    3.5724   -2.0625    0.0000 H   0  0  0  0  0  0  0  0  0  0  0  0
    3.5724   -1.2375    0.0000 H   0  0  0  0  0  0  0  0  0  0  0  0
    2.8579   -0.8250    0.0000 H   0  0  0  0  0  0  0  0  0  0  0  0
  1  2  1  0  0  0  0
  2  3  2  0  0  0  0
  3  4  1  0  0  0  0
  3  5  1  0  0  0  0
  5  6  1  0  0  0  0
  5  7  2  0  0  0  0
  7  8  1  0  0  0  0
  8  9  1  0  0  0  0
  8 10  2  0  0  0  0
  2 10  1  0  0  0  0
 10 11  1  0  0  0  0
 11 12  1  0  0  0  0
 12 13  2  0  0  0  0
 12 14  1  0  0  0  0
 14 15  1  0  0  0  0
 15 16  1  0  0  0  0
 15 17  1  0  0  0  0
 15 18  1  0  0  0  0
 14 19  1  0  0  0  0
 19 20  2  0  0  0  0
 20 21  1  0  0  0  0
 20 22  1  0  0  0  0
 22 23  1  0  0  0  0
 22 24  2  0  0  0  0
 24 25  1  0  0  0  0
 24 26  1  0  0  0  0
 26 27  1  0  0  0  0
 26 28  2  0  0  0  0
 19 28  1  0  0  0  0
 28 29  1  0  0  0  0
 14 30  1  0  0  0  0
 11 31  1  0  0  0  0
  1 32  1  0  0  0  0
  1 33  1  0  0  0  0
  1 34  1  0  0  0  0
M  END
> <Potency>
26.1796376915625

> <pIC50>
4.582036368084879

> <Outcome>
Inactive

> <is_active>
0

$$$$

  Mrv1921 08232120312D          

 34 35  0  0  0  0            999 V2000
   -1.4289   -1.6500    0.0000 C   0  0  0  0  0  0  0  0  0  0  0  0
   -1.4289   -2.4750    0.0000 C   0  0  0  0  0  0  0  0  0  0  0  0
   -0.7145   -2.8875    0.0000 C   0  0  0  0  0  0  0  0  0  0  0  0
    0.0000   -2.4750    0.0000 N   0  0  0  0  0  0  0  0  0  0  0  0
    0.7145   -2.8875    0.0000 H   0  0  0  0  0  0  0  0  0  0  0  0
    0.0000   -1.6500    0.0000 H   0  0  0  0  0  0  0  0  0  0  0  0
   -0.7145   -3.7125    0.0000 C   0  0  0  0  0  0  0  0  0  0  0  0
    0.0000   -4.1250    0.0000 H   0  0  0  0  0  0  0  0  0  0  0  0
   -1.4289   -4.1250    0.0000 N   0  0  0  0  0  0  0  0  0  0  0  0
   -2.1434   -3.7125    0.0000 C   0  0  0  0  0  0  0  0  0  0  0  0
   -2.8579   -4.1250    0.0000 H   0  0  0  0  0  0  0  0  0  0  0  0
   -2.1434   -2.8875    0.0000 C   0  0  0  0  0  0  0  0  0  0  0  0
   -2.8579   -2.4750    0.0000 N   0  0  0  0  0  0  0  0  0  0  0  0
   -3.5724   -2.8875    0.0000 C   0  0  0  0  0  0  0  0  0  0  0  0
   -3.5724   -3.7125    0.0000 O   0  0  0  0  0  0  0  0  0  0  0  0
   -4.2868   -2.4750    0.0000 C   0  0  0  0  0  0  0  0  0  0  0  0
   -5.0013   -2.8875    0.0000 C   0  0  0  0  0  0  0  0  0  0  0  0
   -5.0013   -3.7125    0.0000 C   0  0  0  0  0  0  0  0  0  0  0  0
   -4.2868   -4.1250    0.0000 H   0  0  0  0  0  0  0  0  0  0  0  0
   -5.7158   -4.1250    0.0000 C   0  0  0  0  0  0  0  0  0  0  0  0
   -5.7158   -4.9500    0.0000 H   0  0  0  0  0  0  0  0  0  0  0  0
   -6.4302   -3.7125    0.0000 C   0  0  0  0  0  0  0  0  0  0  0  0
   -7.1447   -4.1250    0.0000 H   0  0  0  0  0  0  0  0  0  0  0  0
   -6.4302   -2.8875    0.0000 C   0  0  0  0  0  0  0  0  0  0  0  0
   -7.1447   -2.4750    0.0000 C   0  0  0  0  0  0  0  0  0  0  0  0
   -7.8592   -2.0625    0.0000 N   0  0  0  0  0  0  0  0  0  0  0  0
   -5.7158   -2.4750    0.0000 C   0  0  0  0  0  0  0  0  0  0  0  0
   -5.7158   -1.6500    0.0000 H   0  0  0  0  0  0  0  0  0  0  0  0
   -3.9166   -1.7378    0.0000 H   0  0  0  0  0  0  0  0  0  0  0  0
   -4.6571   -1.7378    0.0000 H   0  0  0  0  0  0  0  0  0  0  0  0
   -2.8579   -1.6500    0.0000 H   0  0  0  0  0  0  0  0  0  0  0  0
   -0.6039   -1.6500    0.0000 H   0  0  0  0  0  0  0  0  0  0  0  0
   -1.4289   -0.8250    0.0000 H   0  0  0  0  0  0  0  0  0  0  0  0
   -2.2539   -1.6500    0.0000 H   0  0  0  0  0  0  0  0  0  0  0  0
  1  2  1  0  0  0  0
  2  3  2  0  0  0  0
  3  4  1  0  0  0  0
  4  5  1  0  0  0  0
  4  6  1  0  0  0  0
  3  7  1  0  0  0  0
  7  8  1  0  0  0  0
  7  9  2  0  0  0  0
  9 10  1  0  0  0  0
 10 11  1  0  0  0  0
 10 12  2  0  0  0  0
  2 12  1  0  0  0  0
 12 13  1  0  0  0  0
 13 14  1  0  0  0  0
 14 15  2  0  0  0  0
 14 16  1  0  0  0  0
 16 17  1  0  0  0  0
 17 18  2  0  0  0  0
 18 19  1  0  0  0  0
 18 20  1  0  0  0  0
 20 21  1  0  0  0  0
 20 22  2  0  0  0  0
 22 23  1  0  0  0  0
 22 24  1  0  0  0  0
 24 25  1  0  0  0  0
 25 26  3  0  0  0  0
 24 27  2  0  0  0  0
 17 27  1  0  0  0  0
 27 28  1  0  0  0  0
 16 29  1  0  0  0  0
 16 30  1  0  0  0  0
 13 31  1  0  0  0  0
  1 32  1  0  0  0  0
  1 33  1  0  0  0  0
  1 34  1  0  0  0  0
M  END
> <Potency>
16.0655600611995

> <pIC50>
4.794104129916461

> <Outcome>
Inactive

> <is_active>
0

$$$$

  Mrv1921 08232120312D          

 32 33  0  0  0  0            999 V2000
   -1.4289   -1.6500    0.0000 C   0  0  0  0  0  0  0  0  0  0  0  0
   -1.4289   -2.4750    0.0000 C   0  0  0  0  0  0  0  0  0  0  0  0
   -0.7145   -2.8875    0.0000 C   0  0  0  0  0  0  0  0  0  0  0  0
    0.0000   -2.4750    0.0000 H   0  0  0  0  0  0  0  0  0  0  0  0
   -0.7145   -3.7125    0.0000 C   0  0  0  0  0  0  0  0  0  0  0  0
    0.0000   -4.1250    0.0000 H   0  0  0  0  0  0  0  0  0  0  0  0
   -1.4289   -4.1250    0.0000 N   0  0  0  0  0  0  0  0  0  0  0  0
   -2.1434   -3.7125    0.0000 C   0  0  0  0  0  0  0  0  0  0  0  0
   -2.8579   -4.1250    0.0000 H   0  0  0  0  0  0  0  0  0  0  0  0
   -2.1434   -2.8875    0.0000 C   0  0  0  0  0  0  0  0  0  0  0  0
   -2.8579   -2.4750    0.0000 N   0  0  0  0  0  0  0  0  0  0  0  0
   -3.5724   -2.8875    0.0000 C   0  0  0  0  0  0  0  0  0  0  0  0
   -3.5724   -3.7125    0.0000 O   0  0  0  0  0  0  0  0  0  0  0  0
   -4.2868   -2.4750    0.0000 C   0  0  0  0  0  0  0  0  0  0  0  0
   -5.0013   -2.8875    0.0000 C   0  0  0  0  0  0  0  0  0  0  0  0
   -5.0013   -3.7125    0.0000 C   0  0  0  0  0  0  0  0  0  0  0  0
   -4.2868   -4.1250    0.0000 H   0  0  0  0  0  0  0  0  0  0  0  0
   -5.7158   -4.1250    0.0000 C   0  0  0  0  0  0  0  0  0  0  0  0
   -5.7158   -4.9500    0.0000 H   0  0  0  0  0  0  0  0  0  0  0  0
   -6.4302   -3.7125    0.0000 C   0  0  0  0  0  0  0  0  0  0  0  0
   -7.1447   -4.1250    0.0000 H   0  0  0  0  0  0  0  0  0  0  0  0
   -6.4302   -2.8875    0.0000 C   0  0  0  0  0  0  0  0  0  0  0  0
   -7.1447   -2.4750    0.0000 C   0  0  0  0  0  0  0  0  0  0  0  0
   -7.8592   -2.0625    0.0000 N   0  0  0  0  0  0  0  0  0  0  0  0
   -5.7158   -2.4750    0.0000 C   0  0  0  0  0  0  0  0  0  0  0  0
   -5.7158   -1.6500    0.0000 H   0  0  0  0  0  0  0  0  0  0  0  0
   -3.9166   -1.7378    0.0000 H   0  0  0  0  0  0  0  0  0  0  0  0
   -4.6571   -1.7378    0.0000 H   0  0  0  0  0  0  0  0  0  0  0  0
   -2.8579   -1.6500    0.0000 H   0  0  0  0  0  0  0  0  0  0  0  0
   -0.6039   -1.6500    0.0000 H   0  0  0  0  0  0  0  0  0  0  0  0
   -1.4289   -0.8250    0.0000 H   0  0  0  0  0  0  0  0  0  0  0  0
   -2.2539   -1.6500    0.0000 H   0  0  0  0  0  0  0  0  0  0  0  0
  1  2  1  0  0  0  0
  2  3  2  0  0  0  0
  3  4  1  0  0  0  0
  3  5  1  0  0  0  0
  5  6  1  0  0  0  0
  5  7  2  0  0  0  0
  7  8  1  0  0  0  0
  8  9  1  0  0  0  0
  8 10  2  0  0  0  0
  2 10  1  0  0  0  0
 10 11  1  0  0  0  0
 11 12  1  0  0  0  0
 12 13  2  0  0  0  0
 12 14  1  0  0  0  0
 14 15  1  0  0  0  0
 15 16  2  0  0  0  0
 16 17  1  0  0  0  0
 16 18  1  0  0  0  0
 18 19  1  0  0  0  0
 18 20  2  0  0  0  0
 20 21  1  0  0  0  0
 20 22  1  0  0  0  0
 22 23  1  0  0  0  0
 23 24  3  0  0  0  0
 22 25  2  0  0  0  0
 15 25  1  0  0  0  0
 25 26  1  0  0  0  0
 14 27  1  0  0  0  0
 14 28  1  0  0  0  0
 11 29  1  0  0  0  0
  1 30  1  0  0  0  0
  1 31  1  0  0  0  0
  1 32  1  0  0  0  0
M  END
> <Potency>
61.3302720094334

> <pIC50>
4.212325109143682

> <Outcome>
Inactive

> <is_active>
0

$$$$

  Mrv1921 08232120312D          

 35 36  0  0  0  0            999 V2000
   -1.4289   -1.6500    0.0000 C   0  0  0  0  0  0  0  0  0  0  0  0
   -1.4289   -2.4750    0.0000 C   0  0  0  0  0  0  0  0  0  0  0  0
   -0.7145   -2.8875    0.0000 C   0  0  0  0  0  0  0  0  0  0  0  0
    0.0000   -2.4750    0.0000 H   0  0  0  0  0  0  0  0  0  0  0  0
   -0.7145   -3.7125    0.0000 C   0  0  0  0  0  0  0  0  0  0  0  0
    0.0000   -4.1250    0.0000 H   0  0  0  0  0  0  0  0  0  0  0  0
   -1.4289   -4.1250    0.0000 N   0  0  0  0  0  0  0  0  0  0  0  0
   -2.1434   -3.7125    0.0000 C   0  0  0  0  0  0  0  0  0  0  0  0
   -2.8579   -4.1250    0.0000 H   0  0  0  0  0  0  0  0  0  0  0  0
   -2.1434   -2.8875    0.0000 C   0  0  0  0  0  0  0  0  0  0  0  0
   -2.8579   -2.4750    0.0000 N   0  0  0  0  0  0  0  0  0  0  0  0
   -3.5724   -2.8875    0.0000 C   0  0  0  0  0  0  0  0  0  0  0  0
   -3.5724   -3.7125    0.0000 O   0  0  0  0  0  0  0  0  0  0  0  0
   -4.2868   -2.4750    0.0000 C   0  0  0  0  0  0  0  0  0  0  0  0
   -4.2868   -1.6500    0.0000 C   0  0  0  0  0  0  0  0  0  0  0  0
   -3.7035   -1.0666    0.0000 H   0  0  0  0  0  0  0  0  0  0  0  0
   -4.6993   -0.9355    0.0000 H   0  0  0  0  0  0  0  0  0  0  0  0
   -5.0837   -1.8635    0.0000 H   0  0  0  0  0  0  0  0  0  0  0  0
   -5.0013   -2.8875    0.0000 C   0  0  0  0  0  0  0  0  0  0  0  0
   -5.0013   -3.7125    0.0000 C   0  0  0  0  0  0  0  0  0  0  0  0
   -4.2868   -4.1250    0.0000 H   0  0  0  0  0  0  0  0  0  0  0  0
   -5.7158   -4.1250    0.0000 C   0  0  0  0  0  0  0  0  0  0  0  0
   -5.7158   -4.9500    0.0000 H   0  0  0  0  0  0  0  0  0  0  0  0
   -6.4302   -3.7125    0.0000 C   0  0  0  0  0  0  0  0  0  0  0  0
   -7.1447   -4.1250    0.0000 H   0  0  0  0  0  0  0  0  0  0  0  0
   -6.4302   -2.8875    0.0000 C   0  0  0  0  0  0  0  0  0  0  0  0
   -7.1447   -2.4750    0.0000 C   0  0  0  0  0  0  0  0  0  0  0  0
   -7.8592   -2.0625    0.0000 N   0  0  0  0  0  0  0  0  0  0  0  0
   -5.7158   -2.4750    0.0000 C   0  0  0  0  0  0  0  0  0  0  0  0
   -6.2126   -1.8164    0.0000 H   0  0  0  0  0  0  0  0  0  0  0  0
   -3.5724   -2.0625    0.0000 H   0  0  0  0  0  0  0  0  0  0  0  0
   -2.8579   -1.6500    0.0000 H   0  0  0  0  0  0  0  0  0  0  0  0
   -0.6039   -1.6500    0.0000 H   0  0  0  0  0  0  0  0  0  0  0  0
   -1.4289   -0.8250    0.0000 H   0  0  0  0  0  0  0  0  0  0  0  0
   -2.2539   -1.6500    0.0000 H   0  0  0  0  0  0  0  0  0  0  0  0
  1  2  1  0  0  0  0
  2  3  2  0  0  0  0
  3  4  1  0  0  0  0
  3  5  1  0  0  0  0
  5  6  1  0  0  0  0
  5  7  2  0  0  0  0
  7  8  1  0  0  0  0
  8  9  1  0  0  0  0
  8 10  2  0  0  0  0
  2 10  1  0  0  0  0
 10 11  1  0  0  0  0
 11 12  1  0  0  0  0
 12 13  2  0  0  0  0
 12 14  1  0  0  0  0
 14 15  1  0  0  0  0
 15 16  1  0  0  0  0
 15 17  1  0  0  0  0
 15 18  1  0  0  0  0
 14 19  1  0  0  0  0
 19 20  2  0  0  0  0
 20 21  1  0  0  0  0
 20 22  1  0  0  0  0
 22 23  1  0  0  0  0
 22 24  2  0  0  0  0
 24 25  1  0  0  0  0
 24 26  1  0  0  0  0
 26 27  1  0  0  0  0
 27 28  3  0  0  0  0
 26 29  2  0  0  0  0
 19 29  1  0  0  0  0
 29 30  1  0  0  0  0
 14 31  1  0  0  0  0
 11 32  1  0  0  0  0
  1 33  1  0  0  0  0
  1 34  1  0  0  0  0
  1 35  1  0  0  0  0
M  END
> <Potency>
54.9421036995899

> <pIC50>
4.260094715726665

> <Outcome>
Inactive

> <is_active>
0

$$$$

  Mrv1921 08232120312D          

 31 32  0  0  0  0            999 V2000
   -1.4289   -1.6500    0.0000 C   0  0  0  0  0  0  0  0  0  0  0  0
   -1.4289   -2.4750    0.0000 C   0  0  0  0  0  0  0  0  0  0  0  0
   -0.7145   -2.8875    0.0000 C   0  0  0  0  0  0  0  0  0  0  0  0
    0.0000   -2.4750    0.0000 H   0  0  0  0  0  0  0  0  0  0  0  0
   -0.7145   -3.7125    0.0000 C   0  0  0  0  0  0  0  0  0  0  0  0
    0.0000   -4.1250    0.0000 H   0  0  0  0  0  0  0  0  0  0  0  0
   -1.4289   -4.1250    0.0000 N   0  0  0  0  0  0  0  0  0  0  0  0
   -2.1434   -3.7125    0.0000 C   0  0  0  0  0  0  0  0  0  0  0  0
   -2.8579   -4.1250    0.0000 H   0  0  0  0  0  0  0  0  0  0  0  0
   -2.1434   -2.8875    0.0000 C   0  0  0  0  0  0  0  0  0  0  0  0
   -2.8579   -2.4750    0.0000 N   0  0  0  0  0  0  0  0  0  0  0  0
   -3.5724   -2.8875    0.0000 C   0  0  0  0  0  0  0  0  0  0  0  0
   -3.5724   -3.7125    0.0000 O   0  0  0  0  0  0  0  0  0  0  0  0
   -4.2868   -2.4750    0.0000 N   0  0  0  0  0  0  0  0  0  0  0  0
   -5.0013   -2.8875    0.0000 C   0  0  0  0  0  0  0  0  0  0  0  0
   -5.0013   -3.7125    0.0000 C   0  0  0  0  0  0  0  0  0  0  0  0
   -4.2868   -4.1250    0.0000 H   0  0  0  0  0  0  0  0  0  0  0  0
   -5.7158   -4.1250    0.0000 C   0  0  0  0  0  0  0  0  0  0  0  0
   -5.7158   -4.9500    0.0000 H   0  0  0  0  0  0  0  0  0  0  0  0
   -6.4302   -3.7125    0.0000 C   0  0  0  0  0  0  0  0  0  0  0  0
   -7.1447   -4.1250    0.0000 H   0  0  0  0  0  0  0  0  0  0  0  0
   -6.4302   -2.8875    0.0000 C   0  0  0  0  0  0  0  0  0  0  0  0
   -7.1447   -2.4750    0.0000 C   0  0  0  0  0  0  0  0  0  0  0  0
   -7.8592   -2.0625    0.0000 N   0  0  0  0  0  0  0  0  0  0  0  0
   -5.7158   -2.4750    0.0000 C   0  0  0  0  0  0  0  0  0  0  0  0
   -5.7158   -1.6500    0.0000 H   0  0  0  0  0  0  0  0  0  0  0  0
   -4.2868   -1.6500    0.0000 H   0  0  0  0  0  0  0  0  0  0  0  0
   -2.8579   -1.6500    0.0000 H   0  0  0  0  0  0  0  0  0  0  0  0
   -0.6039   -1.6500    0.0000 H   0  0  0  0  0  0  0  0  0  0  0  0
   -1.4289   -0.8250    0.0000 H   0  0  0  0  0  0  0  0  0  0  0  0
   -2.2539   -1.6500    0.0000 H   0  0  0  0  0  0  0  0  0  0  0  0
  1  2  1  0  0  0  0
  2  3  2  0  0  0  0
  3  4  1  0  0  0  0
  3  5  1  0  0  0  0
  5  6  1  0  0  0  0
  5  7  2  0  0  0  0
  7  8  1  0  0  0  0
  8  9  1  0  0  0  0
  8 10  2  0  0  0  0
  2 10  1  0  0  0  0
 10 11  1  0  0  0  0
 11 12  1  0  0  0  0
 12 13  2  0  0  0  0
 12 14  1  0  0  0  0
 14 15  1  0  0  0  0
 15 16  2  0  0  0  0
 16 17  1  0  0  0  0
 16 18  1  0  0  0  0
 18 19  1  0  0  0  0
 18 20  2  0  0  0  0
 20 21  1  0  0  0  0
 20 22  1  0  0  0  0
 22 23  1  0  0  0  0
 23 24  3  0  0  0  0
 22 25  2  0  0  0  0
 15 25  1  0  0  0  0
 25 26  1  0  0  0  0
 14 27  1  0  0  0  0
 11 28  1  0  0  0  0
  1 29  1  0  0  0  0
  1 30  1  0  0  0  0
  1 31  1  0  0  0  0
M  END
> <Potency>
99.01

> <pIC50>
4.004320939488378

> <Outcome>
Inactive

> <is_active>
0

$$$$

  Mrv1921 08232120312D          

 28 29  0  0  0  0            999 V2000
    2.8579   -0.8250    0.0000 N   0  0  0  0  0  0  0  0  0  0  0  0
    2.8579   -1.6500    0.0000 C   0  0  0  0  0  0  0  0  0  0  0  0
    2.8579   -2.4750    0.0000 C   0  0  0  0  0  0  0  0  0  0  0  0
    3.5724   -2.8875    0.0000 C   0  0  0  0  0  0  0  0  0  0  0  0
    4.2868   -2.4750    0.0000 H   0  0  0  0  0  0  0  0  0  0  0  0
    3.5724   -3.7125    0.0000 C   0  0  0  0  0  0  0  0  0  0  0  0
    4.2868   -4.1250    0.0000 Cl  0  0  0  0  0  0  0  0  0  0  0  0
    2.8579   -4.1250    0.0000 C   0  0  0  0  0  0  0  0  0  0  0  0
    2.8579   -4.9500    0.0000 H   0  0  0  0  0  0  0  0  0  0  0  0
    2.1434   -3.7125    0.0000 C   0  0  0  0  0  0  0  0  0  0  0  0
    1.4289   -4.1250    0.0000 N   0  0  0  0  0  0  0  0  0  0  0  0
    0.7145   -3.7125    0.0000 C   0  0  0  0  0  0  0  0  0  0  0  0
    0.7145   -2.8875    0.0000 O   0  0  0  0  0  0  0  0  0  0  0  0
    0.0000   -4.1250    0.0000 N   0  0  0  0  0  0  0  0  0  0  0  0
   -0.7145   -3.7125    0.0000 C   0  0  0  0  0  0  0  0  0  0  0  0
   -1.4289   -4.1250    0.0000 C   0  0  0  0  0  0  0  0  0  0  0  0
   -1.4289   -4.9500    0.0000 H   0  0  0  0  0  0  0  0  0  0  0  0
   -2.1434   -3.7125    0.0000 C   0  0  0  0  0  0  0  0  0  0  0  0
   -2.8579   -4.1250    0.0000 H   0  0  0  0  0  0  0  0  0  0  0  0
   -2.1434   -2.8875    0.0000 C   0  0  0  0  0  0  0  0  0  0  0  0
   -2.8579   -2.4750    0.0000 H   0  0  0  0  0  0  0  0  0  0  0  0
   -1.4289   -2.4750    0.0000 N   0  0  0  0  0  0  0  0  0  0  0  0
   -0.7145   -2.8875    0.0000 C   0  0  0  0  0  0  0  0  0  0  0  0
    0.0000   -2.4750    0.0000 H   0  0  0  0  0  0  0  0  0  0  0  0
    0.0000   -4.9500    0.0000 H   0  0  0  0  0  0  0  0  0  0  0  0
    1.4289   -4.9500    0.0000 H   0  0  0  0  0  0  0  0  0  0  0  0
    2.1434   -2.8875    0.0000 C   0  0  0  0  0  0  0  0  0  0  0  0
    1.4289   -2.4750    0.0000 H   0  0  0  0  0  0  0  0  0  0  0  0
  1  2  3  0  0  0  0
  2  3  1  0  0  0  0
  3  4  2  0  0  0  0
  4  5  1  0  0  0  0
  4  6  1  0  0  0  0
  6  7  1  0  0  0  0
  6  8  2  0  0  0  0
  8  9  1  0  0  0  0
  8 10  1  0  0  0  0
 10 11  1  0  0  0  0
 11 12  1  0  0  0  0
 12 13  2  0  0  0  0
 12 14  1  0  0  0  0
 14 15  1  0  0  0  0
 15 16  2  0  0  0  0
 16 17  1  0  0  0  0
 16 18  1  0  0  0  0
 18 19  1  0  0  0  0
 18 20  2  0  0  0  0
 20 21  1  0  0  0  0
 20 22  1  0  0  0  0
 22 23  2  0  0  0  0
 15 23  1  0  0  0  0
 23 24  1  0  0  0  0
 14 25  1  0  0  0  0
 11 26  1  0  0  0  0
 10 27  2  0  0  0  0
  3 27  1  0  0  0  0
 27 28  1  0  0  0  0
M  END
> <Potency>
99.01

> <pIC50>
4.004320939488378

> <Outcome>
Inactive

> <is_active>
0

$$$$

  Mrv1921 08232120312D          

 30 31  0  0  0  0            999 V2000
    2.8579   -0.8250    0.0000 N   0  0  0  0  0  0  0  0  0  0  0  0
    2.8579   -1.6500    0.0000 C   0  0  0  0  0  0  0  0  0  0  0  0
    2.8579   -2.4750    0.0000 C   0  0  0  0  0  0  0  0  0  0  0  0
    3.5724   -2.8875    0.0000 C   0  0  0  0  0  0  0  0  0  0  0  0
    4.2868   -2.4750    0.0000 H   0  0  0  0  0  0  0  0  0  0  0  0
    3.5724   -3.7125    0.0000 C   0  0  0  0  0  0  0  0  0  0  0  0
    4.2868   -4.1250    0.0000 H   0  0  0  0  0  0  0  0  0  0  0  0
    2.8579   -4.1250    0.0000 C   0  0  0  0  0  0  0  0  0  0  0  0
    2.8579   -4.9500    0.0000 H   0  0  0  0  0  0  0  0  0  0  0  0
    2.1434   -3.7125    0.0000 C   0  0  0  0  0  0  0  0  0  0  0  0
    1.4289   -4.1250    0.0000 N   0  0  0  0  0  0  0  0  0  0  0  0
    0.7145   -3.7125    0.0000 C   0  0  0  0  0  0  0  0  0  0  0  0
    0.7145   -2.8875    0.0000 O   0  0  0  0  0  0  0  0  0  0  0  0
    0.0000   -4.1250    0.0000 N   0  0  0  0  0  0  0  0  0  0  0  0
   -0.7145   -3.7125    0.0000 C   0  0  0  0  0  0  0  0  0  0  0  0
   -1.4289   -4.1250    0.0000 C   0  0  0  0  0  0  0  0  0  0  0  0
   -1.4289   -4.9500    0.0000 H   0  0  0  0  0  0  0  0  0  0  0  0
   -2.1434   -3.7125    0.0000 N   0  0  0  0  0  0  0  0  0  0  0  0
   -2.1434   -2.8875    0.0000 C   0  0  0  0  0  0  0  0  0  0  0  0
   -2.8579   -2.4750    0.0000 H   0  0  0  0  0  0  0  0  0  0  0  0
   -1.4289   -2.4750    0.0000 C   0  0  0  0  0  0  0  0  0  0  0  0
   -1.4289   -1.6500    0.0000 N   0  0  0  0  0  0  0  0  0  0  0  0
   -0.7145   -1.2375    0.0000 H   0  0  0  0  0  0  0  0  0  0  0  0
   -2.1434   -1.2375    0.0000 H   0  0  0  0  0  0  0  0  0  0  0  0
   -0.7145   -2.8875    0.0000 C   0  0  0  0  0  0  0  0  0  0  0  0
    0.0000   -2.4750    0.0000 H   0  0  0  0  0  0  0  0  0  0  0  0
    0.0000   -4.9500    0.0000 H   0  0  0  0  0  0  0  0  0  0  0  0
    1.4289   -4.9500    0.0000 H   0  0  0  0  0  0  0  0  0  0  0  0
    2.1434   -2.8875    0.0000 C   0  0  0  0  0  0  0  0  0  0  0  0
    1.4289   -2.4750    0.0000 H   0  0  0  0  0  0  0  0  0  0  0  0
  1  2  3  0  0  0  0
  2  3  1  0  0  0  0
  3  4  2  0  0  0  0
  4  5  1  0  0  0  0
  4  6  1  0  0  0  0
  6  7  1  0  0  0  0
  6  8  2  0  0  0  0
  8  9  1  0  0  0  0
  8 10  1  0  0  0  0
 10 11  1  0  0  0  0
 11 12  1  0  0  0  0
 12 13  2  0  0  0  0
 12 14  1  0  0  0  0
 14 15  1  0  0  0  0
 15 16  2  0  0  0  0
 16 17  1  0  0  0  0
 16 18  1  0  0  0  0
 18 19  2  0  0  0  0
 19 20  1  0  0  0  0
 19 21  1  0  0  0  0
 21 22  1  0  0  0  0
 22 23  1  0  0  0  0
 22 24  1  0  0  0  0
 21 25  2  0  0  0  0
 15 25  1  0  0  0  0
 25 26  1  0  0  0  0
 14 27  1  0  0  0  0
 11 28  1  0  0  0  0
 10 29  2  0  0  0  0
  3 29  1  0  0  0  0
 29 30  1  0  0  0  0
M  END
> <Potency>
54.2729639849878

> <pIC50>
4.265416459843515

> <Outcome>
Inactive

> <is_active>
0

$$$$

  Mrv1921 08232120312D          

 32 34  0  0  0  0            999 V2000
   -2.5569   -5.8031    0.0000 N   0  0  0  0  0  0  0  0  0  0  0  0
   -2.3020   -5.0184    0.0000 C   0  0  0  0  0  0  0  0  0  0  0  0
   -2.0470   -4.2338    0.0000 C   0  0  0  0  0  0  0  0  0  0  0  0
   -2.5990   -3.6207    0.0000 C   0  0  0  0  0  0  0  0  0  0  0  0
   -3.4060   -3.7923    0.0000 H   0  0  0  0  0  0  0  0  0  0  0  0
   -2.3441   -2.8361    0.0000 C   0  0  0  0  0  0  0  0  0  0  0  0
   -2.8961   -2.2230    0.0000 H   0  0  0  0  0  0  0  0  0  0  0  0
   -1.5371   -2.6646    0.0000 C   0  0  0  0  0  0  0  0  0  0  0  0
   -1.2822   -1.8800    0.0000 H   0  0  0  0  0  0  0  0  0  0  0  0
   -0.9851   -3.2777    0.0000 C   0  0  0  0  0  0  0  0  0  0  0  0
   -0.1781   -3.1062    0.0000 N   0  0  0  0  0  0  0  0  0  0  0  0
    0.0768   -2.3215    0.0000 C   0  0  0  0  0  0  0  0  0  0  0  0
   -0.4752   -1.7084    0.0000 O   0  0  0  0  0  0  0  0  0  0  0  0
    0.8838   -2.1500    0.0000 N   0  0  0  0  0  0  0  0  0  0  0  0
    1.1387   -1.3654    0.0000 C   0  0  0  0  0  0  0  0  0  0  0  0
    0.6538   -0.6979    0.0000 C   0  0  0  0  0  0  0  0  0  0  0  0
   -0.1712   -0.6979    0.0000 H   0  0  0  0  0  0  0  0  0  0  0  0
    1.1387   -0.0305    0.0000 N   0  0  0  0  0  0  0  0  0  0  0  0
    0.8838    0.7541    0.0000 H   0  0  0  0  0  0  0  0  0  0  0  0
    1.9233   -0.2854    0.0000 C   0  0  0  0  0  0  0  0  0  0  0  0
    2.6378    0.1271    0.0000 N   0  0  0  0  0  0  0  0  0  0  0  0
    3.3523   -0.2854    0.0000 C   0  0  0  0  0  0  0  0  0  0  0  0
    3.3523   -1.1104    0.0000 C   0  0  0  0  0  0  0  0  0  0  0  0
    2.6378   -1.5229    0.0000 C   0  0  0  0  0  0  0  0  0  0  0  0
    2.6378   -2.3479    0.0000 H   0  0  0  0  0  0  0  0  0  0  0  0
    1.9233   -1.1104    0.0000 C   0  0  0  0  0  0  0  0  0  0  0  0
    4.0668   -1.5229    0.0000 H   0  0  0  0  0  0  0  0  0  0  0  0
    4.0668    0.1271    0.0000 H   0  0  0  0  0  0  0  0  0  0  0  0
    1.4358   -2.7631    0.0000 H   0  0  0  0  0  0  0  0  0  0  0  0
    0.3739   -3.7192    0.0000 H   0  0  0  0  0  0  0  0  0  0  0  0
   -1.2400   -4.0623    0.0000 C   0  0  0  0  0  0  0  0  0  0  0  0
   -0.6880   -4.6754    0.0000 H   0  0  0  0  0  0  0  0  0  0  0  0
  1  2  3  0  0  0  0
  2  3  1  0  0  0  0
  3  4  2  0  0  0  0
  4  5  1  0  0  0  0
  4  6  1  0  0  0  0
  6  7  1  0  0  0  0
  6  8  2  0  0  0  0
  8  9  1  0  0  0  0
  8 10  1  0  0  0  0
 10 11  1  0  0  0  0
 11 12  1  0  0  0  0
 12 13  2  0  0  0  0
 12 14  1  0  0  0  0
 14 15  1  0  0  0  0
 15 16  2  0  0  0  0
 16 17  1  0  0  0  0
 16 18  1  0  0  0  0
 18 19  1  0  0  0  0
 18 20  1  0  0  0  0
 20 21  2  0  0  0  0
 21 22  1  0  0  0  0
 22 23  2  0  0  0  0
 23 24  1  0  0  0  0
 24 25  1  0  0  0  0
 24 26  2  0  0  0  0
 15 26  1  0  0  0  0
 20 26  1  0  0  0  0
 23 27  1  0  0  0  0
 22 28  1  0  0  0  0
 14 29  1  0  0  0  0
 11 30  1  0  0  0  0
 10 31  2  0  0  0  0
  3 31  1  0  0  0  0
 31 32  1  0  0  0  0
M  END
> <Potency>
63.5549252040437

> <pIC50>
4.1968507880516635

> <Outcome>
Inactive

> <is_active>
0

$$$$

  Mrv1921 08232120312D          

 35 37  0  0  0  0            999 V2000
   -0.7145   -7.0125    0.0000 N   0  0  0  0  0  0  0  0  0  0  0  0
   -0.7145   -6.1875    0.0000 C   0  0  0  0  0  0  0  0  0  0  0  0
   -0.7145   -5.3625    0.0000 C   0  0  0  0  0  0  0  0  0  0  0  0
   -1.4289   -4.9500    0.0000 C   0  0  0  0  0  0  0  0  0  0  0  0
   -2.1434   -5.3625    0.0000 H   0  0  0  0  0  0  0  0  0  0  0  0
   -1.4289   -4.1250    0.0000 C   0  0  0  0  0  0  0  0  0  0  0  0
   -2.1434   -3.7125    0.0000 H   0  0  0  0  0  0  0  0  0  0  0  0
   -0.7145   -3.7125    0.0000 C   0  0  0  0  0  0  0  0  0  0  0  0
   -0.7145   -2.8875    0.0000 H   0  0  0  0  0  0  0  0  0  0  0  0
    0.0000   -4.1250    0.0000 C   0  0  0  0  0  0  0  0  0  0  0  0
    0.7145   -3.7125    0.0000 N   0  0  0  0  0  0  0  0  0  0  0  0
    0.7145   -2.8875    0.0000 C   0  0  0  0  0  0  0  0  0  0  0  0
    0.0000   -2.4750    0.0000 O   0  0  0  0  0  0  0  0  0  0  0  0
    1.4289   -2.4750    0.0000 C   0  0  0  0  0  0  0  0  0  0  0  0
    1.4289   -1.6500    0.0000 C   0  0  0  0  0  0  0  0  0  0  0  0
    0.7145   -1.2375    0.0000 C   0  0  0  0  0  0  0  0  0  0  0  0
    0.0000   -1.6500    0.0000 H   0  0  0  0  0  0  0  0  0  0  0  0
    0.7145   -0.4125    0.0000 N   0  0  0  0  0  0  0  0  0  0  0  0
    1.4289    0.0000    0.0000 C   0  0  0  0  0  0  0  0  0  0  0  0
    1.4289    0.8250    0.0000 H   0  0  0  0  0  0  0  0  0  0  0  0
    2.1434   -0.4125    0.0000 C   0  0  0  0  0  0  0  0  0  0  0  0
    2.8579    0.0000    0.0000 C   0  0  0  0  0  0  0  0  0  0  0  0
    3.5724   -0.4125    0.0000 C   0  0  0  0  0  0  0  0  0  0  0  0
    3.5724   -1.2375    0.0000 C   0  0  0  0  0  0  0  0  0  0  0  0
    2.8579   -1.6500    0.0000 C   0  0  0  0  0  0  0  0  0  0  0  0
    2.8579   -2.4750    0.0000 H   0  0  0  0  0  0  0  0  0  0  0  0
    2.1434   -1.2375    0.0000 C   0  0  0  0  0  0  0  0  0  0  0  0
    4.2868   -1.6500    0.0000 H   0  0  0  0  0  0  0  0  0  0  0  0
    4.2868   -0.0000    0.0000 H   0  0  0  0  0  0  0  0  0  0  0  0
    2.8579    0.8250    0.0000 H   0  0  0  0  0  0  0  0  0  0  0  0
    1.8823   -3.1643    0.0000 H   0  0  0  0  0  0  0  0  0  0  0  0
    2.2525   -2.5230    0.0000 H   0  0  0  0  0  0  0  0  0  0  0  0
    1.4289   -4.1250    0.0000 H   0  0  0  0  0  0  0  0  0  0  0  0
    0.0000   -4.9500    0.0000 C   0  0  0  0  0  0  0  0  0  0  0  0
    0.7145   -5.3625    0.0000 H   0  0  0  0  0  0  0  0  0  0  0  0
  1  2  3  0  0  0  0
  2  3  1  0  0  0  0
  3  4  2  0  0  0  0
  4  5  1  0  0  0  0
  4  6  1  0  0  0  0
  6  7  1  0  0  0  0
  6  8  2  0  0  0  0
  8  9  1  0  0  0  0
  8 10  1  0  0  0  0
 10 11  1  0  0  0  0
 11 12  1  0  0  0  0
 12 13  2  0  0  0  0
 12 14  1  0  0  0  0
 14 15  1  0  0  0  0
 15 16  2  0  0  0  0
 16 17  1  0  0  0  0
 16 18  1  0  0  0  0
 18 19  2  0  0  0  0
 19 20  1  0  0  0  0
 19 21  1  0  0  0  0
 21 22  2  0  0  0  0
 22 23  1  0  0  0  0
 23 24  2  0  0  0  0
 24 25  1  0  0  0  0
 25 26  1  0  0  0  0
 25 27  2  0  0  0  0
 15 27  1  0  0  0  0
 21 27  1  0  0  0  0
 24 28  1  0  0  0  0
 23 29  1  0  0  0  0
 22 30  1  0  0  0  0
 14 31  1  0  0  0  0
 14 32  1  0  0  0  0
 11 33  1  0  0  0  0
 10 34  2  0  0  0  0
  3 34  1  0  0  0  0
 34 35  1  0  0  0  0
M  END
> <Potency>
26.6801291780371

> <pIC50>
4.573812072012877

> <Outcome>
Inactive

> <is_active>
0

$$$$

  Mrv1921 08232120312D          

 34 36  0  0  0  0            999 V2000
    0.0000   -2.4750    0.0000 O   0  0  0  0  0  0  0  0  0  0  0  0
    0.7145   -2.8875    0.0000 C   0  0  0  0  0  0  0  0  0  0  0  0
    1.4289   -2.4750    0.0000 C   0  0  0  0  0  0  0  0  0  0  0  0
    1.4289   -1.6500    0.0000 C   0  0  0  0  0  0  0  0  0  0  0  0
    0.7145   -1.2375    0.0000 C   0  0  0  0  0  0  0  0  0  0  0  0
    0.0000   -1.6500    0.0000 H   0  0  0  0  0  0  0  0  0  0  0  0
    0.7145   -0.4125    0.0000 N   0  0  0  0  0  0  0  0  0  0  0  0
    1.4289    0.0000    0.0000 C   0  0  0  0  0  0  0  0  0  0  0  0
    1.4289    0.8250    0.0000 H   0  0  0  0  0  0  0  0  0  0  0  0
    2.1434   -0.4125    0.0000 C   0  0  0  0  0  0  0  0  0  0  0  0
    2.8579    0.0000    0.0000 C   0  0  0  0  0  0  0  0  0  0  0  0
    3.5724   -0.4125    0.0000 C   0  0  0  0  0  0  0  0  0  0  0  0
    3.5724   -1.2375    0.0000 C   0  0  0  0  0  0  0  0  0  0  0  0
    2.8579   -1.6500    0.0000 C   0  0  0  0  0  0  0  0  0  0  0  0
    2.8579   -2.4750    0.0000 H   0  0  0  0  0  0  0  0  0  0  0  0
    2.1434   -1.2375    0.0000 C   0  0  0  0  0  0  0  0  0  0  0  0
    4.2868   -1.6500    0.0000 H   0  0  0  0  0  0  0  0  0  0  0  0
    4.2868   -0.0000    0.0000 H   0  0  0  0  0  0  0  0  0  0  0  0
    2.8579    0.8250    0.0000 H   0  0  0  0  0  0  0  0  0  0  0  0
    1.8823   -3.1643    0.0000 H   0  0  0  0  0  0  0  0  0  0  0  0
    2.2525   -2.5230    0.0000 H   0  0  0  0  0  0  0  0  0  0  0  0
    0.7145   -3.7125    0.0000 N   0  0  0  0  0  0  0  0  0  0  0  0
    0.0000   -4.1250    0.0000 C   0  0  0  0  0  0  0  0  0  0  0  0
    0.0000   -4.9500    0.0000 C   0  0  0  0  0  0  0  0  0  0  0  0
    0.7145   -5.3625    0.0000 H   0  0  0  0  0  0  0  0  0  0  0  0
   -0.7145   -5.3625    0.0000 C   0  0  0  0  0  0  0  0  0  0  0  0
   -0.7145   -6.1875    0.0000 H   0  0  0  0  0  0  0  0  0  0  0  0
   -1.4289   -4.9500    0.0000 C   0  0  0  0  0  0  0  0  0  0  0  0
   -2.1434   -5.3625    0.0000 H   0  0  0  0  0  0  0  0  0  0  0  0
   -1.4289   -4.1250    0.0000 C   0  0  0  0  0  0  0  0  0  0  0  0
   -2.1434   -3.7125    0.0000 H   0  0  0  0  0  0  0  0  0  0  0  0
   -0.7145   -3.7125    0.0000 C   0  0  0  0  0  0  0  0  0  0  0  0
   -0.7145   -2.8875    0.0000 H   0  0  0  0  0  0  0  0  0  0  0  0
    1.4289   -4.1250    0.0000 H   0  0  0  0  0  0  0  0  0  0  0  0
  1  2  2  0  0  0  0
  2  3  1  0  0  0  0
  3  4  1  0  0  0  0
  4  5  2  0  0  0  0
  5  6  1  0  0  0  0
  5  7  1  0  0  0  0
  7  8  2  0  0  0  0
  8  9  1  0  0  0  0
  8 10  1  0  0  0  0
 10 11  2  0  0  0  0
 11 12  1  0  0  0  0
 12 13  2  0  0  0  0
 13 14  1  0  0  0  0
 14 15  1  0  0  0  0
 14 16  2  0  0  0  0
  4 16  1  0  0  0  0
 10 16  1  0  0  0  0
 13 17  1  0  0  0  0
 12 18  1  0  0  0  0
 11 19  1  0  0  0  0
  3 20  1  0  0  0  0
  3 21  1  0  0  0  0
  2 22  1  0  0  0  0
 22 23  1  0  0  0  0
 23 24  2  0  0  0  0
 24 25  1  0  0  0  0
 24 26  1  0  0  0  0
 26 27  1  0  0  0  0
 26 28  2  0  0  0  0
 28 29  1  0  0  0  0
 28 30  1  0  0  0  0
 30 31  1  0  0  0  0
 30 32  2  0  0  0  0
 23 32  1  0  0  0  0
 32 33  1  0  0  0  0
 22 34  1  0  0  0  0
M  END
> <Potency>
57.4696696866732

> <pIC50>
4.240561299015029

> <Outcome>
Inactive

> <is_active>
0

$$$$

  Mrv1921 08232120312D          

 48 52  0  0  0  0            999 V2000
    4.7301   -4.2623    0.0000 O   0  0  0  0  0  0  0  0  0  0  0  0
    4.0156   -4.6748    0.0000 N   0  3  0  0  0  0  0  0  0  0  0  0
    3.3012   -4.2623    0.0000 O   0  5  0  0  0  0  0  0  0  0  0  0
    4.0156   -5.4998    0.0000 C   0  0  0  0  0  0  0  0  0  0  0  0
    4.6831   -5.9847    0.0000 C   0  0  0  0  0  0  0  0  0  0  0  0
    5.4677   -5.7298    0.0000 H   0  0  0  0  0  0  0  0  0  0  0  0
    4.4281   -6.7694    0.0000 N   0  0  0  0  0  0  0  0  0  0  0  0
    3.6031   -6.7694    0.0000 C   0  0  0  0  0  0  0  0  0  0  0  0
    3.1182   -7.4368    0.0000 S   0  0  0  0  0  0  0  0  0  0  0  0
    3.4538   -8.1905    0.0000 C   0  0  0  0  0  0  0  0  0  0  0  0
    4.2607   -8.3620    0.0000 N   0  0  0  0  0  0  0  0  0  0  0  0
    4.3470   -9.1825    0.0000 N   0  0  0  0  0  0  0  0  0  0  0  0
    3.5933   -9.5180    0.0000 C   0  0  0  0  0  0  0  0  0  0  0  0
    3.4218  -10.3250    0.0000 C   0  0  0  0  0  0  0  0  0  0  0  0
    3.9738  -10.9381    0.0000 C   0  0  0  0  0  0  0  0  0  0  0  0
    4.7943  -10.8519    0.0000 H   0  0  0  0  0  0  0  0  0  0  0  0
    3.5613  -11.6526    0.0000 C   0  0  0  0  0  0  0  0  0  0  0  0
    3.8969  -12.4063    0.0000 H   0  0  0  0  0  0  0  0  0  0  0  0
    2.7543  -11.4811    0.0000 C   0  0  0  0  0  0  0  0  0  0  0  0
    2.1412  -12.0331    0.0000 H   0  0  0  0  0  0  0  0  0  0  0  0
    2.6681  -10.6606    0.0000 O   0  0  0  0  0  0  0  0  0  0  0  0
    3.0413   -8.9049    0.0000 N   0  0  0  0  0  0  0  0  0  0  0  0
    2.2208   -8.9912    0.0000 C   0  0  0  0  0  0  0  0  0  0  0  0
    1.8852   -9.7449    0.0000 C   0  0  0  0  0  0  0  0  0  0  0  0
    2.3701  -10.4123    0.0000 H   0  0  0  0  0  0  0  0  0  0  0  0
    1.0647   -9.8311    0.0000 C   0  0  0  0  0  0  0  0  0  0  0  0
    0.7292  -10.5848    0.0000 H   0  0  0  0  0  0  0  0  0  0  0  0
    0.5798   -9.1637    0.0000 C   0  0  0  0  0  0  0  0  0  0  0  0
   -0.2407   -9.2499    0.0000 O   0  0  0  0  0  0  0  0  0  0  0  0
   -0.5762  -10.0036    0.0000 C   0  0  0  0  0  0  0  0  0  0  0  0
   -1.3967  -10.0898    0.0000 C   0  0  0  0  0  0  0  0  0  0  0  0
   -1.7323  -10.8435    0.0000 C   0  0  0  0  0  0  0  0  0  0  0  0
   -1.2473  -11.5109    0.0000 H   0  0  0  0  0  0  0  0  0  0  0  0
   -2.5527  -10.9297    0.0000 C   0  0  0  0  0  0  0  0  0  0  0  0
   -2.8883  -11.6834    0.0000 H   0  0  0  0  0  0  0  0  0  0  0  0
   -3.0377  -10.2623    0.0000 C   0  0  0  0  0  0  0  0  0  0  0  0
   -3.8581  -10.3485    0.0000 H   0  0  0  0  0  0  0  0  0  0  0  0
   -2.7021   -9.5086    0.0000 C   0  0  0  0  0  0  0  0  0  0  0  0
   -3.1870   -8.8412    0.0000 H   0  0  0  0  0  0  0  0  0  0  0  0
   -1.8816   -9.4224    0.0000 C   0  0  0  0  0  0  0  0  0  0  0  0
   -1.5461   -8.6687    0.0000 H   0  0  0  0  0  0  0  0  0  0  0  0
   -0.4424  -10.8176    0.0000 H   0  0  0  0  0  0  0  0  0  0  0  0
    0.1567  -10.3824    0.0000 H   0  0  0  0  0  0  0  0  0  0  0  0
    0.9154   -8.4100    0.0000 C   0  0  0  0  0  0  0  0  0  0  0  0
    0.4305   -7.7425    0.0000 H   0  0  0  0  0  0  0  0  0  0  0  0
    1.7359   -8.3237    0.0000 C   0  0  0  0  0  0  0  0  0  0  0  0
    2.0714   -7.5701    0.0000 H   0  0  0  0  0  0  0  0  0  0  0  0
    3.3482   -5.9847    0.0000 S   0  0  0  0  0  0  0  0  0  0  0  0
  1  2  2  0  0  0  0
  2  3  1  0  0  0  0
  2  4  1  0  0  0  0
  4  5  2  0  0  0  0
  5  6  1  0  0  0  0
  5  7  1  0  0  0  0
  7  8  2  0  0  0  0
  8  9  1  0  0  0  0
  9 10  1  0  0  0  0
 10 11  2  0  0  0  0
 11 12  1  0  0  0  0
 12 13  2  0  0  0  0
 13 14  1  0  0  0  0
 14 15  2  0  0  0  0
 15 16  1  0  0  0  0
 15 17  1  0  0  0  0
 17 18  1  0  0  0  0
 17 19  2  0  0  0  0
 19 20  1  0  0  0  0
 19 21  1  0  0  0  0
 14 21  1  0  0  0  0
 13 22  1  0  0  0  0
 10 22  1  0  0  0  0
 22 23  1  0  0  0  0
 23 24  2  0  0  0  0
 24 25  1  0  0  0  0
 24 26  1  0  0  0  0
 26 27  1  0  0  0  0
 26 28  2  0  0  0  0
 28 29  1  0  0  0  0
 29 30  1  0  0  0  0
 30 31  1  0  0  0  0
 31 32  2  0  0  0  0
 32 33  1  0  0  0  0
 32 34  1  0  0  0  0
 34 35  1  0  0  0  0
 34 36  2  0  0  0  0
 36 37  1  0  0  0  0
 36 38  1  0  0  0  0
 38 39  1  0  0  0  0
 38 40  2  0  0  0  0
 31 40  1  0  0  0  0
 40 41  1  0  0  0  0
 30 42  1  0  0  0  0
 30 43  1  0  0  0  0
 28 44  1  0  0  0  0
 44 45  1  0  0  0  0
 44 46  2  0  0  0  0
 23 46  1  0  0  0  0
 46 47  1  0  0  0  0
  8 48  1  0  0  0  0
  4 48  1  0  0  0  0
M  CHG  2   2   1   3  -1
M  END
> <Potency>
7.29510086983517

> <pIC50>
5.136968698710907

> <Outcome>
Active

> <is_active>
1

$$$$

  Mrv1921 08232120312D          

 36 40  0  0  0  0            999 V2000
    5.4957    3.1729    0.0000 C   0  0  0  0  0  0  0  0  0  0  0  0
    5.4957    2.3479    0.0000 C   0  0  0  0  0  0  0  0  0  0  0  0
    6.2102    1.9354    0.0000 H   0  0  0  0  0  0  0  0  0  0  0  0
    4.7812    1.9354    0.0000 C   0  0  0  0  0  0  0  0  0  0  0  0
    4.7812    1.1104    0.0000 H   0  0  0  0  0  0  0  0  0  0  0  0
    4.0668    2.3479    0.0000 C   0  0  0  0  0  0  0  0  0  0  0  0
    3.3523    1.9354    0.0000 C   0  0  0  0  0  0  0  0  0  0  0  0
    3.3523    1.1104    0.0000 C   0  0  0  0  0  0  0  0  0  0  0  0
    4.0668    0.6979    0.0000 H   0  0  0  0  0  0  0  0  0  0  0  0
    2.6378    0.6979    0.0000 C   0  0  0  0  0  0  0  0  0  0  0  0
    2.6378   -0.1271    0.0000 S   0  0  0  0  0  0  0  0  0  0  0  0
    3.3523   -0.5396    0.0000 C   0  0  0  0  0  0  0  0  0  0  0  0
    4.1060   -0.2040    0.0000 N   0  0  0  0  0  0  0  0  0  0  0  0
    4.6580   -0.8171    0.0000 N   0  0  0  0  0  0  0  0  0  0  0  0
    4.2455   -1.5316    0.0000 C   0  0  0  0  0  0  0  0  0  0  0  0
    4.5811   -2.2852    0.0000 C   0  0  0  0  0  0  0  0  0  0  0  0
    5.3880   -2.4568    0.0000 C   0  0  0  0  0  0  0  0  0  0  0  0
    6.0011   -1.9047    0.0000 H   0  0  0  0  0  0  0  0  0  0  0  0
    5.4743   -3.2772    0.0000 C   0  0  0  0  0  0  0  0  0  0  0  0
    6.1887   -3.6897    0.0000 H   0  0  0  0  0  0  0  0  0  0  0  0
    4.7206   -3.6128    0.0000 C   0  0  0  0  0  0  0  0  0  0  0  0
    4.5491   -4.4198    0.0000 H   0  0  0  0  0  0  0  0  0  0  0  0
    4.1686   -2.9997    0.0000 S   0  0  0  0  0  0  0  0  0  0  0  0
    3.4385   -1.3600    0.0000 O   0  0  0  0  0  0  0  0  0  0  0  0
    1.9233    1.1104    0.0000 N   0  0  0  0  0  0  0  0  0  0  0  0
    1.1387    0.8555    0.0000 N   0  0  0  0  0  0  0  0  0  0  0  0
    0.6538    1.5229    0.0000 C   0  0  0  0  0  0  0  0  0  0  0  0
    1.1387    2.1904    0.0000 N   0  0  0  0  0  0  0  0  0  0  0  0
    1.9233    1.9354    0.0000 C   0  0  0  0  0  0  0  0  0  0  0  0
    2.6378    2.3479    0.0000 N   0  0  0  0  0  0  0  0  0  0  0  0
   -0.1712    1.5229    0.0000 H   0  0  0  0  0  0  0  0  0  0  0  0
    4.0668    3.1729    0.0000 C   0  0  0  0  0  0  0  0  0  0  0  0
    3.3523    3.5854    0.0000 H   0  0  0  0  0  0  0  0  0  0  0  0
    4.7812    3.5854    0.0000 C   0  0  0  0  0  0  0  0  0  0  0  0
    4.7812    4.4104    0.0000 H   0  0  0  0  0  0  0  0  0  0  0  0
    6.2102    3.5854    0.0000 H   0  0  0  0  0  0  0  0  0  0  0  0
  1  2  2  0  0  0  0
  2  3  1  0  0  0  0
  2  4  1  0  0  0  0
  4  5  1  0  0  0  0
  4  6  2  0  0  0  0
  6  7  1  0  0  0  0
  7  8  1  0  0  0  0
  8  9  1  0  0  0  0
  8 10  2  0  0  0  0
 10 11  1  0  0  0  0
 11 12  1  0  0  0  0
 12 13  2  0  0  0  0
 13 14  1  0  0  0  0
 14 15  2  0  0  0  0
 15 16  1  0  0  0  0
 16 17  2  0  0  0  0
 17 18  1  0  0  0  0
 17 19  1  0  0  0  0
 19 20  1  0  0  0  0
 19 21  2  0  0  0  0
 21 22  1  0  0  0  0
 21 23  1  0  0  0  0
 16 23  1  0  0  0  0
 15 24  1  0  0  0  0
 12 24  1  0  0  0  0
 10 25  1  0  0  0  0
 25 26  1  0  0  0  0
 26 27  2  0  0  0  0
 27 28  1  0  0  0  0
 28 29  2  0  0  0  0
 25 29  1  0  0  0  0
 29 30  1  0  0  0  0
  7 30  2  0  0  0  0
 27 31  1  0  0  0  0
  6 32  1  0  0  0  0
 32 33  1  0  0  0  0
 32 34  2  0  0  0  0
  1 34  1  0  0  0  0
 34 35  1  0  0  0  0
  1 36  1  0  0  0  0
M  END
> <Potency>
0.221232268882523

> <pIC50>
6.6551515266642935

> <Outcome>
Active

> <is_active>
1

$$$$

  Mrv1921 08232120312D          

 42 45  0  0  0  0            999 V2000
    4.7079    4.5375    0.0000 C   0  0  0  0  0  0  0  0  0  0  0  0
    4.7079    3.7125    0.0000 C   0  0  0  0  0  0  0  0  0  0  0  0
    5.4223    3.3000    0.0000 C   0  0  0  0  0  0  0  0  0  0  0  0
    6.1368    3.7125    0.0000 H   0  0  0  0  0  0  0  0  0  0  0  0
    5.4223    2.4750    0.0000 C   0  0  0  0  0  0  0  0  0  0  0  0
    6.1368    2.0625    0.0000 C   0  0  0  0  0  0  0  0  0  0  0  0
    5.7243    1.3480    0.0000 H   0  0  0  0  0  0  0  0  0  0  0  0
    6.8513    1.6500    0.0000 H   0  0  0  0  0  0  0  0  0  0  0  0
    6.5493    2.7770    0.0000 H   0  0  0  0  0  0  0  0  0  0  0  0
    4.7079    2.0625    0.0000 C   0  0  0  0  0  0  0  0  0  0  0  0
    4.7079    1.2375    0.0000 C   0  0  0  0  0  0  0  0  0  0  0  0
    4.7079    0.4125    0.0000 N   0  0  0  0  0  0  0  0  0  0  0  0
    3.9934    2.4750    0.0000 C   0  0  0  0  0  0  0  0  0  0  0  0
    3.2789    2.0625    0.0000 S   0  0  0  0  0  0  0  0  0  0  0  0
    3.2789    1.2375    0.0000 C   0  0  0  0  0  0  0  0  0  0  0  0
    3.9934    0.8250    0.0000 N   0  0  0  0  0  0  0  0  0  0  0  0
    3.9934    0.0000    0.0000 C   0  0  0  0  0  0  0  0  0  0  0  0
    4.4059   -0.7145    0.0000 H   0  0  0  0  0  0  0  0  0  0  0  0
    3.2789   -0.4125    0.0000 N   0  0  0  0  0  0  0  0  0  0  0  0
    2.5645    0.0000    0.0000 C   0  0  0  0  0  0  0  0  0  0  0  0
    2.5645    0.8250    0.0000 C   0  0  0  0  0  0  0  0  0  0  0  0
    1.7798    1.0799    0.0000 N   0  0  0  0  0  0  0  0  0  0  0  0
    1.2949    0.4125    0.0000 N   0  0  0  0  0  0  0  0  0  0  0  0
    1.7798   -0.2549    0.0000 N   0  0  0  0  0  0  0  0  0  0  0  0
    1.5249   -1.0396    0.0000 C   0  0  0  0  0  0  0  0  0  0  0  0
    0.7179   -1.2111    0.0000 C   0  0  0  0  0  0  0  0  0  0  0  0
    0.4630   -1.9957    0.0000 C   0  0  0  0  0  0  0  0  0  0  0  0
    1.0150   -2.6088    0.0000 H   0  0  0  0  0  0  0  0  0  0  0  0
   -0.3440   -2.1672    0.0000 C   0  0  0  0  0  0  0  0  0  0  0  0
   -0.5989   -2.9519    0.0000 H   0  0  0  0  0  0  0  0  0  0  0  0
   -0.8960   -1.5541    0.0000 C   0  0  0  0  0  0  0  0  0  0  0  0
   -1.7030   -1.7257    0.0000 H   0  0  0  0  0  0  0  0  0  0  0  0
   -0.6411   -0.7695    0.0000 C   0  0  0  0  0  0  0  0  0  0  0  0
   -1.1931   -0.1564    0.0000 H   0  0  0  0  0  0  0  0  0  0  0  0
    0.1659   -0.5980    0.0000 C   0  0  0  0  0  0  0  0  0  0  0  0
    0.4208    0.1866    0.0000 H   0  0  0  0  0  0  0  0  0  0  0  0
    1.7431   -1.8352    0.0000 H   0  0  0  0  0  0  0  0  0  0  0  0
    2.2934   -1.3397    0.0000 H   0  0  0  0  0  0  0  0  0  0  0  0
    3.9934    3.3000    0.0000 N   0  0  0  0  0  0  0  0  0  0  0  0
    5.5329    4.5375    0.0000 H   0  0  0  0  0  0  0  0  0  0  0  0
    4.7079    5.3625    0.0000 H   0  0  0  0  0  0  0  0  0  0  0  0
    3.8829    4.5375    0.0000 H   0  0  0  0  0  0  0  0  0  0  0  0
  1  2  1  0  0  0  0
  2  3  2  0  0  0  0
  3  4  1  0  0  0  0
  3  5  1  0  0  0  0
  5  6  1  0  0  0  0
  6  7  1  0  0  0  0
  6  8  1  0  0  0  0
  6  9  1  0  0  0  0
  5 10  2  0  0  0  0
 10 11  1  0  0  0  0
 11 12  3  0  0  0  0
 10 13  1  0  0  0  0
 13 14  1  0  0  0  0
 14 15  1  0  0  0  0
 15 16  1  0  0  0  0
 16 17  2  0  0  0  0
 17 18  1  0  0  0  0
 17 19  1  0  0  0  0
 19 20  2  0  0  0  0
 20 21  1  0  0  0  0
 15 21  2  0  0  0  0
 21 22  1  0  0  0  0
 22 23  2  0  0  0  0
 23 24  1  0  0  0  0
 20 24  1  0  0  0  0
 24 25  1  0  0  0  0
 25 26  1  0  0  0  0
 26 27  2  0  0  0  0
 27 28  1  0  0  0  0
 27 29  1  0  0  0  0
 29 30  1  0  0  0  0
 29 31  2  0  0  0  0
 31 32  1  0  0  0  0
 31 33  1  0  0  0  0
 33 34  1  0  0  0  0
 33 35  2  0  0  0  0
 26 35  1  0  0  0  0
 35 36  1  0  0  0  0
 25 37  1  0  0  0  0
 25 38  1  0  0  0  0
 13 39  2  0  0  0  0
  2 39  1  0  0  0  0
  1 40  1  0  0  0  0
  1 41  1  0  0  0  0
  1 42  1  0  0  0  0
M  END
> <Potency>
0.649330990296828

> <pIC50>
6.187533869276133

> <Outcome>
Active

> <is_active>
1

$$$$

  Mrv1921 08232120312D          

 38 40  0  0  0  0            999 V2000
    0.7145    7.5911    0.0000 C   0  0  0  0  0  0  0  0  0  0  0  0
    0.7145    6.7661    0.0000 C   0  0  0  0  0  0  0  0  0  0  0  0
   -0.1105    6.7661    0.0000 C   0  0  0  0  0  0  0  0  0  0  0  0
   -0.8727    7.0818    0.0000 H   0  0  0  0  0  0  0  0  0  0  0  0
   -0.6939    6.1827    0.0000 H   0  0  0  0  0  0  0  0  0  0  0  0
    0.2052    6.0039    0.0000 H   0  0  0  0  0  0  0  0  0  0  0  0
    1.5395    6.7661    0.0000 C   0  0  0  0  0  0  0  0  0  0  0  0
    1.2238    6.0039    0.0000 H   0  0  0  0  0  0  0  0  0  0  0  0
    2.1228    6.1827    0.0000 H   0  0  0  0  0  0  0  0  0  0  0  0
    2.3017    7.0818    0.0000 H   0  0  0  0  0  0  0  0  0  0  0  0
    0.7145    5.9411    0.0000 C   0  0  0  0  0  0  0  0  0  0  0  0
    1.4289    5.5286    0.0000 C   0  0  0  0  0  0  0  0  0  0  0  0
    2.1864    5.2017    0.0000 H   0  0  0  0  0  0  0  0  0  0  0  0
    1.4289    4.7036    0.0000 C   0  0  0  0  0  0  0  0  0  0  0  0
    1.8620    4.0014    0.0000 H   0  0  0  0  0  0  0  0  0  0  0  0
    0.7145    4.2911    0.0000 C   0  0  0  0  0  0  0  0  0  0  0  0
    0.7145    3.4661    0.0000 C   0  0  0  0  0  0  0  0  0  0  0  0
    1.3819    2.9812    0.0000 N   0  0  0  0  0  0  0  0  0  0  0  0
    1.1270    2.1965    0.0000 N   0  0  0  0  0  0  0  0  0  0  0  0
    0.3020    2.1965    0.0000 C   0  0  0  0  0  0  0  0  0  0  0  0
   -0.1830    1.5291    0.0000 S   0  0  0  0  0  0  0  0  0  0  0  0
    0.1526    0.7754    0.0000 C   0  0  0  0  0  0  0  0  0  0  0  0
    0.9596    0.6039    0.0000 C   0  0  0  0  0  0  0  0  0  0  0  0
    1.5727    1.1559    0.0000 H   0  0  0  0  0  0  0  0  0  0  0  0
    1.0458   -0.2166    0.0000 N   0  0  0  0  0  0  0  0  0  0  0  0
    0.2921   -0.5522    0.0000 C   0  0  0  0  0  0  0  0  0  0  0  0
    0.1206   -1.3591    0.0000 N   0  3  0  0  0  0  0  0  0  0  0  0
    0.7337   -1.9112    0.0000 O   0  0  0  0  0  0  0  0  0  0  0  0
   -0.6640   -1.6141    0.0000 O   0  5  0  0  0  0  0  0  0  0  0  0
   -0.2599    0.0609    0.0000 S   0  0  0  0  0  0  0  0  0  0  0  0
    0.0470    2.9812    0.0000 O   0  0  0  0  0  0  0  0  0  0  0  0
    0.0000    4.7036    0.0000 C   0  0  0  0  0  0  0  0  0  0  0  0
   -0.7145    4.2911    0.0000 H   0  0  0  0  0  0  0  0  0  0  0  0
   -0.0000    5.5286    0.0000 C   0  0  0  0  0  0  0  0  0  0  0  0
   -0.7575    5.2017    0.0000 H   0  0  0  0  0  0  0  0  0  0  0  0
    1.5395    7.5911    0.0000 H   0  0  0  0  0  0  0  0  0  0  0  0
    0.7145    8.4161    0.0000 H   0  0  0  0  0  0  0  0  0  0  0  0
   -0.1105    7.5911    0.0000 H   0  0  0  0  0  0  0  0  0  0  0  0
  1  2  1  0  0  0  0
  2  3  1  0  0  0  0
  3  4  1  0  0  0  0
  3  5  1  0  0  0  0
  3  6  1  0  0  0  0
  2  7  1  0  0  0  0
  7  8  1  0  0  0  0
  7  9  1  0  0  0  0
  7 10  1  0  0  0  0
  2 11  1  0  0  0  0
 11 12  2  0  0  0  0
 12 13  1  0  0  0  0
 12 14  1  0  0  0  0
 14 15  1  0  0  0  0
 14 16  2  0  0  0  0
 16 17  1  0  0  0  0
 17 18  2  0  0  0  0
 18 19  1  0  0  0  0
 19 20  2  0  0  0  0
 20 21  1  0  0  0  0
 21 22  1  0  0  0  0
 22 23  2  0  0  0  0
 23 24  1  0  0  0  0
 23 25  1  0  0  0  0
 25 26  2  0  0  0  0
 26 27  1  0  0  0  0
 27 28  2  0  0  0  0
 27 29  1  0  0  0  0
 26 30  1  0  0  0  0
 22 30  1  0  0  0  0
 20 31  1  0  0  0  0
 17 31  1  0  0  0  0
 16 32  1  0  0  0  0
 32 33  1  0  0  0  0
 32 34  2  0  0  0  0
 11 34  1  0  0  0  0
 34 35  1  0  0  0  0
  1 36  1  0  0  0  0
  1 37  1  0  0  0  0
  1 38  1  0  0  0  0
M  CHG  2  27   1  29  -1
M  END
> <Potency>
4.16350789851685

> <pIC50>
5.380540607112557

> <Outcome>
Active

> <is_active>
1

$$$$

  Mrv1921 08232120312D          

 35 37  0  0  0  0            999 V2000
    1.9709    1.0573    0.0000 C   0  0  0  0  0  0  0  0  0  0  0  0
    1.9709    0.2323    0.0000 O   0  0  0  0  0  0  0  0  0  0  0  0
    1.2564   -0.1802    0.0000 C   0  0  0  0  0  0  0  0  0  0  0  0
    0.5420    0.2323    0.0000 O   0  0  0  0  0  0  0  0  0  0  0  0
    1.2564   -1.0052    0.0000 C   0  0  0  0  0  0  0  0  0  0  0  0
    1.9239   -1.4901    0.0000 C   0  0  0  0  0  0  0  0  0  0  0  0
    2.7085   -1.2352    0.0000 C   0  0  0  0  0  0  0  0  0  0  0  0
    2.9634   -2.0198    0.0000 H   0  0  0  0  0  0  0  0  0  0  0  0
    3.4931   -0.9803    0.0000 H   0  0  0  0  0  0  0  0  0  0  0  0
    2.4535   -0.4506    0.0000 H   0  0  0  0  0  0  0  0  0  0  0  0
    1.6689   -2.2748    0.0000 N   0  0  0  0  0  0  0  0  0  0  0  0
    0.8439   -2.2748    0.0000 N   0  0  0  0  0  0  0  0  0  0  0  0
    0.3590   -2.9422    0.0000 C   0  0  0  0  0  0  0  0  0  0  0  0
    0.6946   -3.6959    0.0000 O   0  0  0  0  0  0  0  0  0  0  0  0
   -0.4615   -2.8560    0.0000 C   0  0  0  0  0  0  0  0  0  0  0  0
   -1.0135   -3.4691    0.0000 C   0  0  0  0  0  0  0  0  0  0  0  0
   -0.8420   -4.2760    0.0000 H   0  0  0  0  0  0  0  0  0  0  0  0
   -1.7672   -3.1335    0.0000 C   0  0  0  0  0  0  0  0  0  0  0  0
   -2.4817   -3.5460    0.0000 H   0  0  0  0  0  0  0  0  0  0  0  0
   -1.6810   -2.3130    0.0000 C   0  0  0  0  0  0  0  0  0  0  0  0
   -2.2940   -1.7610    0.0000 H   0  0  0  0  0  0  0  0  0  0  0  0
   -0.8740   -2.1415    0.0000 S   0  0  0  0  0  0  0  0  0  0  0  0
    0.5890   -1.4901    0.0000 C   0  0  0  0  0  0  0  0  0  0  0  0
   -0.1956   -1.2352    0.0000 C   0  0  0  0  0  0  0  0  0  0  0  0
   -0.8631   -1.7201    0.0000 S   0  0  0  0  0  0  0  0  0  0  0  0
   -1.5305   -1.2352    0.0000 N   0  0  0  0  0  0  0  0  0  0  0  0
   -1.2756   -0.4506    0.0000 N   0  0  0  0  0  0  0  0  0  0  0  0
   -0.4506   -0.4506    0.0000 C   0  0  0  0  0  0  0  0  0  0  0  0
    0.0343    0.2169    0.0000 C   0  0  0  0  0  0  0  0  0  0  0  0
    0.0046    1.0413    0.0000 H   0  0  0  0  0  0  0  0  0  0  0  0
   -0.6303    0.7055    0.0000 H   0  0  0  0  0  0  0  0  0  0  0  0
    0.4200   -0.5124    0.0000 H   0  0  0  0  0  0  0  0  0  0  0  0
    2.7959    1.0573    0.0000 H   0  0  0  0  0  0  0  0  0  0  0  0
    1.9709    1.8823    0.0000 H   0  0  0  0  0  0  0  0  0  0  0  0
    1.1459    1.0573    0.0000 H   0  0  0  0  0  0  0  0  0  0  0  0
  1  2  1  0  0  0  0
  2  3  1  0  0  0  0
  3  4  2  0  0  0  0
  3  5  1  0  0  0  0
  5  6  1  0  0  0  0
  6  7  1  0  0  0  0
  7  8  1  0  0  0  0
  7  9  1  0  0  0  0
  7 10  1  0  0  0  0
  6 11  2  0  0  0  0
 11 12  1  0  0  0  0
 12 13  1  0  0  0  0
 13 14  2  0  0  0  0
 13 15  1  0  0  0  0
 15 16  2  0  0  0  0
 16 17  1  0  0  0  0
 16 18  1  0  0  0  0
 18 19  1  0  0  0  0
 18 20  2  0  0  0  0
 20 21  1  0  0  0  0
 20 22  1  0  0  0  0
 15 22  1  0  0  0  0
 12 23  1  0  0  0  0
  5 23  2  0  0  0  0
 23 24  1  0  0  0  0
 24 25  1  0  0  0  0
 25 26  1  0  0  0  0
 26 27  2  0  0  0  0
 27 28  1  0  0  0  0
 24 28  2  0  0  0  0
 28 29  1  0  0  0  0
 29 30  1  0  0  0  0
 29 31  1  0  0  0  0
 29 32  1  0  0  0  0
  1 33  1  0  0  0  0
  1 34  1  0  0  0  0
  1 35  1  0  0  0  0
M  END
> <Potency>
5.72029234102757

> <pIC50>
5.24258177560369

> <Outcome>
Active

> <is_active>
1

$$$$

  Mrv1921 08232120312D          

 26 28  0  0  0  0            999 V2000
    1.7054   -2.6300    0.0000 O   0  0  0  0  0  0  0  0  0  0  0  0
    0.9909   -3.0425    0.0000 N   0  3  0  0  0  0  0  0  0  0  0  0
    0.2764   -2.6300    0.0000 O   0  5  0  0  0  0  0  0  0  0  0  0
    0.9909   -3.8675    0.0000 C   0  0  0  0  0  0  0  0  0  0  0  0
    1.6583   -4.3524    0.0000 C   0  0  0  0  0  0  0  0  0  0  0  0
    2.4430   -4.0975    0.0000 H   0  0  0  0  0  0  0  0  0  0  0  0
    1.4034   -5.1370    0.0000 N   0  0  0  0  0  0  0  0  0  0  0  0
    0.5784   -5.1370    0.0000 C   0  0  0  0  0  0  0  0  0  0  0  0
    0.0935   -5.8045    0.0000 S   0  0  0  0  0  0  0  0  0  0  0  0
    0.4290   -6.5581    0.0000 C   0  0  0  0  0  0  0  0  0  0  0  0
    1.2360   -6.7297    0.0000 N   0  0  0  0  0  0  0  0  0  0  0  0
    1.3222   -7.5502    0.0000 N   0  0  0  0  0  0  0  0  0  0  0  0
    0.5686   -7.8857    0.0000 C   0  0  0  0  0  0  0  0  0  0  0  0
    0.3970   -8.6927    0.0000 C   0  0  0  0  0  0  0  0  0  0  0  0
    1.0101   -9.2447    0.0000 C   0  0  0  0  0  0  0  0  0  0  0  0
    1.7948   -8.9898    0.0000 H   0  0  0  0  0  0  0  0  0  0  0  0
    0.8386  -10.0517    0.0000 C   0  0  0  0  0  0  0  0  0  0  0  0
    1.4517  -10.6037    0.0000 H   0  0  0  0  0  0  0  0  0  0  0  0
    0.0540  -10.3066    0.0000 C   0  0  0  0  0  0  0  0  0  0  0  0
   -0.1175  -11.1136    0.0000 Cl  0  0  0  0  0  0  0  0  0  0  0  0
   -0.5591   -9.7546    0.0000 C   0  0  0  0  0  0  0  0  0  0  0  0
   -1.3437  -10.0095    0.0000 H   0  0  0  0  0  0  0  0  0  0  0  0
   -0.3876   -8.9476    0.0000 C   0  0  0  0  0  0  0  0  0  0  0  0
   -1.0007   -8.3956    0.0000 H   0  0  0  0  0  0  0  0  0  0  0  0
    0.0165   -7.2726    0.0000 O   0  0  0  0  0  0  0  0  0  0  0  0
    0.3235   -4.3524    0.0000 S   0  0  0  0  0  0  0  0  0  0  0  0
  1  2  2  0  0  0  0
  2  3  1  0  0  0  0
  2  4  1  0  0  0  0
  4  5  2  0  0  0  0
  5  6  1  0  0  0  0
  5  7  1  0  0  0  0
  7  8  2  0  0  0  0
  8  9  1  0  0  0  0
  9 10  1  0  0  0  0
 10 11  2  0  0  0  0
 11 12  1  0  0  0  0
 12 13  2  0  0  0  0
 13 14  1  0  0  0  0
 14 15  2  0  0  0  0
 15 16  1  0  0  0  0
 15 17  1  0  0  0  0
 17 18  1  0  0  0  0
 17 19  2  0  0  0  0
 19 20  1  0  0  0  0
 19 21  1  0  0  0  0
 21 22  1  0  0  0  0
 21 23  2  0  0  0  0
 14 23  1  0  0  0  0
 23 24  1  0  0  0  0
 13 25  1  0  0  0  0
 10 25  1  0  0  0  0
  8 26  1  0  0  0  0
  4 26  1  0  0  0  0
M  CHG  2   2   1   3  -1
M  END
> <Potency>
0.880806677614068

> <pIC50>
6.05511940152955

> <Outcome>
Active

> <is_active>
1

$$$$

  Mrv1921 08232120312D          

 51 54  0  0  0  0            999 V2000
   -0.2887   -2.8136    0.0000 C   0  0  0  0  0  0  0  0  0  0  0  0
    0.4258   -3.2261    0.0000 C   0  0  0  0  0  0  0  0  0  0  0  0
    0.4258   -4.0511    0.0000 O   0  0  0  0  0  0  0  0  0  0  0  0
    1.1403   -4.4636    0.0000 C   0  0  0  0  0  0  0  0  0  0  0  0
    1.8547   -4.0511    0.0000 O   0  0  0  0  0  0  0  0  0  0  0  0
    1.1403   -5.2886    0.0000 C   0  0  0  0  0  0  0  0  0  0  0  0
    1.8077   -5.7735    0.0000 C   0  0  0  0  0  0  0  0  0  0  0  0
    2.5923   -5.5186    0.0000 H   0  0  0  0  0  0  0  0  0  0  0  0
    1.5528   -6.5581    0.0000 C   0  0  0  0  0  0  0  0  0  0  0  0
    2.0377   -7.2256    0.0000 C   0  0  0  0  0  0  0  0  0  0  0  0
    2.8582   -7.1393    0.0000 C   0  0  0  0  0  0  0  0  0  0  0  0
    3.1937   -6.3857    0.0000 H   0  0  0  0  0  0  0  0  0  0  0  0
    3.3431   -7.8068    0.0000 C   0  0  0  0  0  0  0  0  0  0  0  0
    4.1636   -7.7206    0.0000 H   0  0  0  0  0  0  0  0  0  0  0  0
    3.0075   -8.5605    0.0000 C   0  0  0  0  0  0  0  0  0  0  0  0
    3.4925   -9.2279    0.0000 H   0  0  0  0  0  0  0  0  0  0  0  0
    2.1870   -8.6467    0.0000 C   0  0  0  0  0  0  0  0  0  0  0  0
    1.8515   -9.4004    0.0000 H   0  0  0  0  0  0  0  0  0  0  0  0
    1.7021   -7.9793    0.0000 C   0  0  0  0  0  0  0  0  0  0  0  0
    0.8816   -8.0655    0.0000 H   0  0  0  0  0  0  0  0  0  0  0  0
    0.7278   -6.5581    0.0000 S   0  0  0  0  0  0  0  0  0  0  0  0
    0.4728   -5.7735    0.0000 C   0  0  0  0  0  0  0  0  0  0  0  0
   -0.3118   -5.5186    0.0000 N   0  0  0  0  0  0  0  0  0  0  0  0
   -0.9249   -6.0706    0.0000 C   0  0  0  0  0  0  0  0  0  0  0  0
   -0.7534   -6.8776    0.0000 O   0  0  0  0  0  0  0  0  0  0  0  0
   -1.7095   -5.8157    0.0000 C   0  0  0  0  0  0  0  0  0  0  0  0
   -2.3226   -6.3677    0.0000 C   0  0  0  0  0  0  0  0  0  0  0  0
   -2.2364   -7.1882    0.0000 C   0  0  0  0  0  0  0  0  0  0  0  0
   -1.5219   -7.6007    0.0000 H   0  0  0  0  0  0  0  0  0  0  0  0
   -2.9901   -7.5237    0.0000 S   0  0  0  0  0  0  0  0  0  0  0  0
   -3.5421   -6.9107    0.0000 C   0  0  0  0  0  0  0  0  0  0  0  0
   -4.3626   -6.9969    0.0000 C   0  0  0  0  0  0  0  0  0  0  0  0
   -4.6981   -7.7506    0.0000 C   0  0  0  0  0  0  0  0  0  0  0  0
   -4.2132   -8.4180    0.0000 H   0  0  0  0  0  0  0  0  0  0  0  0
   -5.5186   -7.8368    0.0000 C   0  0  0  0  0  0  0  0  0  0  0  0
   -5.8542   -8.5905    0.0000 H   0  0  0  0  0  0  0  0  0  0  0  0
   -6.0035   -7.1694    0.0000 C   0  0  0  0  0  0  0  0  0  0  0  0
   -6.8240   -7.2556    0.0000 H   0  0  0  0  0  0  0  0  0  0  0  0
   -5.6680   -6.4157    0.0000 C   0  0  0  0  0  0  0  0  0  0  0  0
   -6.1529   -5.7482    0.0000 H   0  0  0  0  0  0  0  0  0  0  0  0
   -4.8475   -6.3295    0.0000 C   0  0  0  0  0  0  0  0  0  0  0  0
   -4.5119   -5.5758    0.0000 H   0  0  0  0  0  0  0  0  0  0  0  0
   -3.1296   -6.1962    0.0000 N   0  0  0  0  0  0  0  0  0  0  0  0
   -1.5006   -5.0176    0.0000 H   0  0  0  0  0  0  0  0  0  0  0  0
   -2.2250   -5.1715    0.0000 H   0  0  0  0  0  0  0  0  0  0  0  0
   -0.4833   -4.7116    0.0000 H   0  0  0  0  0  0  0  0  0  0  0  0
    1.2494   -3.1781    0.0000 H   0  0  0  0  0  0  0  0  0  0  0  0
    0.8791   -2.5368    0.0000 H   0  0  0  0  0  0  0  0  0  0  0  0
    0.1238   -2.0991    0.0000 H   0  0  0  0  0  0  0  0  0  0  0  0
   -1.0032   -2.4011    0.0000 H   0  0  0  0  0  0  0  0  0  0  0  0
   -0.7012   -3.5281    0.0000 H   0  0  0  0  0  0  0  0  0  0  0  0
  1  2  1  0  0  0  0
  2  3  1  0  0  0  0
  3  4  1  0  0  0  0
  4  5  2  0  0  0  0
  4  6  1  0  0  0  0
  6  7  1  0  0  0  0
  7  8  1  0  0  0  0
  7  9  2  0  0  0  0
  9 10  1  0  0  0  0
 10 11  2  0  0  0  0
 11 12  1  0  0  0  0
 11 13  1  0  0  0  0
 13 14  1  0  0  0  0
 13 15  2  0  0  0  0
 15 16  1  0  0  0  0
 15 17  1  0  0  0  0
 17 18  1  0  0  0  0
 17 19  2  0  0  0  0
 10 19  1  0  0  0  0
 19 20  1  0  0  0  0
  9 21  1  0  0  0  0
 21 22  1  0  0  0  0
  6 22  2  0  0  0  0
 22 23  1  0  0  0  0
 23 24  1  0  0  0  0
 24 25  2  0  0  0  0
 24 26  1  0  0  0  0
 26 27  1  0  0  0  0
 27 28  2  0  0  0  0
 28 29  1  0  0  0  0
 28 30  1  0  0  0  0
 30 31  1  0  0  0  0
 31 32  1  0  0  0  0
 32 33  2  0  0  0  0
 33 34  1  0  0  0  0
 33 35  1  0  0  0  0
 35 36  1  0  0  0  0
 35 37  2  0  0  0  0
 37 38  1  0  0  0  0
 37 39  1  0  0  0  0
 39 40  1  0  0  0  0
 39 41  2  0  0  0  0
 32 41  1  0  0  0  0
 41 42  1  0  0  0  0
 31 43  2  0  0  0  0
 27 43  1  0  0  0  0
 26 44  1  0  0  0  0
 26 45  1  0  0  0  0
 23 46  1  0  0  0  0
  2 47  1  0  0  0  0
  2 48  1  0  0  0  0
  1 49  1  0  0  0  0
  1 50  1  0  0  0  0
  1 51  1  0  0  0  0
M  END
> <Potency>
4.65507654390049

> <pIC50>
5.33207317347527

> <Outcome>
Active

> <is_active>
1

$$$$

  Mrv1921 08232120312D          

 40 42  0  0  0  0            999 V2000
    1.4289   -2.4750    0.0000 C   0  0  0  0  0  0  0  0  0  0  0  0
    1.4289   -1.6500    0.0000 N   0  0  0  0  0  0  0  0  0  0  0  0
    0.7145   -1.2375    0.0000 N   0  0  0  0  0  0  0  0  0  0  0  0
    0.0000   -1.6500    0.0000 H   0  0  0  0  0  0  0  0  0  0  0  0
    0.7145   -0.4125    0.0000 C   0  0  0  0  0  0  0  0  0  0  0  0
    0.0000    0.0000    0.0000 C   0  0  0  0  0  0  0  0  0  0  0  0
   -0.7145   -0.4125    0.0000 C   0  0  0  0  0  0  0  0  0  0  0  0
   -0.7145   -1.2375    0.0000 H   0  0  0  0  0  0  0  0  0  0  0  0
   -1.4289    0.0000    0.0000 C   0  0  0  0  0  0  0  0  0  0  0  0
   -2.1434   -0.4125    0.0000 H   0  0  0  0  0  0  0  0  0  0  0  0
   -1.4289    0.8250    0.0000 C   0  0  0  0  0  0  0  0  0  0  0  0
   -2.1434    1.2375    0.0000 C   0  0  0  0  0  0  0  0  0  0  0  0
   -2.8579    1.6500    0.0000 F   0  0  0  0  0  0  0  0  0  0  0  0
   -2.5559    0.5230    0.0000 F   0  0  0  0  0  0  0  0  0  0  0  0
   -1.7309    1.9520    0.0000 F   0  0  0  0  0  0  0  0  0  0  0  0
   -0.7145    1.2375    0.0000 C   0  0  0  0  0  0  0  0  0  0  0  0
   -0.7145    2.0625    0.0000 H   0  0  0  0  0  0  0  0  0  0  0  0
    0.0000    0.8250    0.0000 C   0  0  0  0  0  0  0  0  0  0  0  0
    0.4125    1.5395    0.0000 H   0  0  0  0  0  0  0  0  0  0  0  0
    0.7145    0.4125    0.0000 H   0  0  0  0  0  0  0  0  0  0  0  0
    1.4289    0.0000    0.0000 N   0  0  0  0  0  0  0  0  0  0  0  0
    1.8414    0.7145    0.0000 H   0  0  0  0  0  0  0  0  0  0  0  0
    2.1434   -0.4125    0.0000 C   0  0  0  0  0  0  0  0  0  0  0  0
    2.8579    0.0000    0.0000 C   0  0  0  0  0  0  0  0  0  0  0  0
    2.8579    0.8250    0.0000 O   0  0  0  0  0  0  0  0  0  0  0  0
    3.5724   -0.4125    0.0000 N   0  0  0  0  0  0  0  0  0  0  0  0
    4.2868   -0.0000    0.0000 C   0  0  0  0  0  0  0  0  0  0  0  0
    4.6993   -0.7145    0.0000 H   0  0  0  0  0  0  0  0  0  0  0  0
    5.0013    0.4125    0.0000 H   0  0  0  0  0  0  0  0  0  0  0  0
    3.8743    0.7145    0.0000 H   0  0  0  0  0  0  0  0  0  0  0  0
    3.5724   -1.2375    0.0000 C   0  0  0  0  0  0  0  0  0  0  0  0
    4.2868   -1.6500    0.0000 O   0  0  0  0  0  0  0  0  0  0  0  0
    2.8579   -1.6500    0.0000 N   0  0  0  0  0  0  0  0  0  0  0  0
    2.8579   -2.4750    0.0000 H   0  0  0  0  0  0  0  0  0  0  0  0
    2.1434   -1.2375    0.0000 C   0  0  0  0  0  0  0  0  0  0  0  0
    2.1434   -2.0625    0.0000 H   0  0  0  0  0  0  0  0  0  0  0  0
    2.8579   -0.8250    0.0000 H   0  0  0  0  0  0  0  0  0  0  0  0
    0.6039   -2.4750    0.0000 H   0  0  0  0  0  0  0  0  0  0  0  0
    1.4289   -3.3000    0.0000 H   0  0  0  0  0  0  0  0  0  0  0  0
    2.2539   -2.4750    0.0000 H   0  0  0  0  0  0  0  0  0  0  0  0
  1  2  1  0  0  0  0
  2  3  1  0  0  0  0
  3  4  1  0  0  0  0
  3  5  1  0  0  0  0
  5  6  1  0  0  0  0
  6  7  2  0  0  0  0
  7  8  1  0  0  0  0
  7  9  1  0  0  0  0
  9 10  1  0  0  0  0
  9 11  2  0  0  0  0
 11 12  1  0  0  0  0
 12 13  1  0  0  0  0
 12 14  1  0  0  0  0
 12 15  1  0  0  0  0
 11 16  1  0  0  0  0
 16 17  1  0  0  0  0
 16 18  2  0  0  0  0
  6 18  1  0  0  0  0
 18 19  1  0  0  0  0
  5 20  1  0  0  0  0
  5 21  1  0  0  0  0
 21 22  1  0  0  0  0
 21 23  1  0  0  0  0
 23 24  1  0  0  0  0
 24 25  2  0  0  0  0
 24 26  1  0  0  0  0
 26 27  1  0  0  0  0
 27 28  1  0  0  0  0
 27 29  1  0  0  0  0
 27 30  1  0  0  0  0
 26 31  1  0  0  0  0
 31 32  2  0  0  0  0
 31 33  1  0  0  0  0
 33 34  1  0  0  0  0
 33 35  1  0  0  0  0
  2 35  1  0  0  0  0
 23 35  1  0  0  0  0
 35 36  1  0  0  0  0
 23 37  1  0  0  0  0
  1 38  1  0  0  0  0
  1 39  1  0  0  0  0
  1 40  1  0  0  0  0
M  END
> <Potency>
2.40060245811437

> <pIC50>
5.619679753538134

> <Outcome>
Active

> <is_active>
1

$$$$

  Mrv1921 08232120312D          

 48 50  0  0  0  0            999 V2000
    0.6078   -3.7741    0.0000 C   0  0  0  0  0  0  0  0  0  0  0  0
    1.3222   -4.1866    0.0000 C   0  0  0  0  0  0  0  0  0  0  0  0
    2.0367   -3.7741    0.0000 C   0  0  0  0  0  0  0  0  0  0  0  0
    2.7512   -4.1866    0.0000 O   0  0  0  0  0  0  0  0  0  0  0  0
    2.0367   -2.9491    0.0000 O   0  0  0  0  0  0  0  0  0  0  0  0
    2.7512   -2.5366    0.0000 C   0  0  0  0  0  0  0  0  0  0  0  0
    2.7512   -1.7116    0.0000 C   0  0  0  0  0  0  0  0  0  0  0  0
    2.2978   -1.0223    0.0000 H   0  0  0  0  0  0  0  0  0  0  0  0
    1.9276   -1.6636    0.0000 H   0  0  0  0  0  0  0  0  0  0  0  0
    3.4656   -1.2991    0.0000 C   0  0  0  0  0  0  0  0  0  0  0  0
    3.8359   -0.5619    0.0000 H   0  0  0  0  0  0  0  0  0  0  0  0
    3.0954   -0.5619    0.0000 H   0  0  0  0  0  0  0  0  0  0  0  0
    4.1801   -1.7116    0.0000 C   0  0  0  0  0  0  0  0  0  0  0  0
    5.0037   -1.6636    0.0000 H   0  0  0  0  0  0  0  0  0  0  0  0
    4.6335   -1.0223    0.0000 H   0  0  0  0  0  0  0  0  0  0  0  0
    4.1801   -2.5366    0.0000 N   0  0  0  0  0  0  0  0  0  0  0  0
    4.8946   -2.9491    0.0000 C   0  0  0  0  0  0  0  0  0  0  0  0
    5.6091   -2.5366    0.0000 C   0  0  0  0  0  0  0  0  0  0  0  0
    5.6091   -1.7116    0.0000 C   0  0  0  0  0  0  0  0  0  0  0  0
    5.4272   -0.9069    0.0000 H   0  0  0  0  0  0  0  0  0  0  0  0
    6.3235   -1.2991    0.0000 C   0  0  0  0  0  0  0  0  0  0  0  0
    6.3235   -0.4741    0.0000 H   0  0  0  0  0  0  0  0  0  0  0  0
    7.0380   -1.7116    0.0000 C   0  0  0  0  0  0  0  0  0  0  0  0
    7.7525   -1.2991    0.0000 H   0  0  0  0  0  0  0  0  0  0  0  0
    7.0380   -2.5366    0.0000 C   0  0  0  0  0  0  0  0  0  0  0  0
    7.7525   -2.9491    0.0000 C   0  0  0  0  0  0  0  0  0  0  0  0
    8.4669   -3.3616    0.0000 F   0  0  0  0  0  0  0  0  0  0  0  0
    8.1650   -2.2346    0.0000 F   0  0  0  0  0  0  0  0  0  0  0  0
    7.3400   -3.6636    0.0000 F   0  0  0  0  0  0  0  0  0  0  0  0
    6.3235   -2.9491    0.0000 C   0  0  0  0  0  0  0  0  0  0  0  0
    6.3235   -3.7741    0.0000 H   0  0  0  0  0  0  0  0  0  0  0  0
    4.5243   -3.6864    0.0000 H   0  0  0  0  0  0  0  0  0  0  0  0
    5.2649   -3.6864    0.0000 H   0  0  0  0  0  0  0  0  0  0  0  0
    3.4656   -2.9491    0.0000 C   0  0  0  0  0  0  0  0  0  0  0  0
    3.4656   -3.7741    0.0000 O   0  0  0  0  0  0  0  0  0  0  0  0
    2.7512   -3.3616    0.0000 H   0  0  0  0  0  0  0  0  0  0  0  0
    1.3222   -5.0116    0.0000 N   0  0  0  0  0  0  0  0  0  0  0  0
    1.9897   -5.4965    0.0000 C   0  0  0  0  0  0  0  0  0  0  0  0
    2.7743   -5.2416    0.0000 H   0  0  0  0  0  0  0  0  0  0  0  0
    1.7347   -6.2812    0.0000 N   0  0  0  0  0  0  0  0  0  0  0  0
    0.9097   -6.2812    0.0000 C   0  0  0  0  0  0  0  0  0  0  0  0
    0.4248   -6.9486    0.0000 C   0  0  0  0  0  0  0  0  0  0  0  0
   -0.0601   -7.6160    0.0000 N   0  0  0  0  0  0  0  0  0  0  0  0
    0.6548   -5.4965    0.0000 N   0  0  0  0  0  0  0  0  0  0  0  0
    1.3222   -3.3616    0.0000 H   0  0  0  0  0  0  0  0  0  0  0  0
    1.0203   -3.0596    0.0000 H   0  0  0  0  0  0  0  0  0  0  0  0
   -0.1067   -3.3616    0.0000 H   0  0  0  0  0  0  0  0  0  0  0  0
    0.1953   -4.4886    0.0000 H   0  0  0  0  0  0  0  0  0  0  0  0
  1  2  1  0  0  0  0
  2  3  1  0  0  0  0
  3  4  2  0  0  0  0
  3  5  1  0  0  0  0
  5  6  1  0  0  0  0
  6  7  1  0  0  0  0
  7  8  1  0  0  0  0
  7  9  1  0  0  0  0
  7 10  1  0  0  0  0
 10 11  1  0  0  0  0
 10 12  1  0  0  0  0
 10 13  1  0  0  0  0
 13 14  1  0  0  0  0
 13 15  1  0  0  0  0
 13 16  1  0  0  0  0
 16 17  1  0  0  0  0
 17 18  1  0  0  0  0
 18 19  2  0  0  0  0
 19 20  1  0  0  0  0
 19 21  1  0  0  0  0
 21 22  1  0  0  0  0
 21 23  2  0  0  0  0
 23 24  1  0  0  0  0
 23 25  1  0  0  0  0
 25 26  1  0  0  0  0
 26 27  1  0  0  0  0
 26 28  1  0  0  0  0
 26 29  1  0  0  0  0
 25 30  2  0  0  0  0
 18 30  1  0  0  0  0
 30 31  1  0  0  0  0
 17 32  1  0  0  0  0
 17 33  1  0  0  0  0
 16 34  1  0  0  0  0
  6 34  1  0  0  0  0
 34 35  2  0  0  0  0
  6 36  1  0  0  0  0
  2 37  1  0  0  0  0
 37 38  1  0  0  0  0
 38 39  1  0  0  0  0
 38 40  2  0  0  0  0
 40 41  1  0  0  0  0
 41 42  1  0  0  0  0
 42 43  3  0  0  0  0
 41 44  2  0  0  0  0
 37 44  1  0  0  0  0
  2 45  1  0  0  0  0
  1 46  1  0  0  0  0
  1 47  1  0  0  0  0
  1 48  1  0  0  0  0
M  END
> <Potency>
9.29258231297007

> <pIC50>
5.031863583268517

> <Outcome>
Active

> <is_active>
1

$$$$

  Mrv1921 08232120312D          

 28 30  0  0  0  0            999 V2000
    3.9934    2.4750    0.0000 O   0  0  0  0  0  0  0  0  0  0  0  0
    3.2789    2.0625    0.0000 C   0  0  0  0  0  0  0  0  0  0  0  0
    2.5645    2.4750    0.0000 O   0  0  0  0  0  0  0  0  0  0  0  0
    2.5645    3.3000    0.0000 C   0  0  0  0  0  0  0  0  0  0  0  0
    1.8500    3.7125    0.0000 C   0  0  0  0  0  0  0  0  0  0  0  0
    1.1355    3.3000    0.0000 H   0  0  0  0  0  0  0  0  0  0  0  0
    1.8500    4.5375    0.0000 N   0  0  0  0  0  0  0  0  0  0  0  0
    2.5645    4.9500    0.0000 C   0  0  0  0  0  0  0  0  0  0  0  0
    2.5645    5.7750    0.0000 H   0  0  0  0  0  0  0  0  0  0  0  0
    3.2789    4.5375    0.0000 C   0  0  0  0  0  0  0  0  0  0  0  0
    3.9934    4.9500    0.0000 Cl  0  0  0  0  0  0  0  0  0  0  0  0
    3.2789    3.7125    0.0000 C   0  0  0  0  0  0  0  0  0  0  0  0
    3.9934    3.3000    0.0000 H   0  0  0  0  0  0  0  0  0  0  0  0
    3.2789    1.2375    0.0000 C   0  0  0  0  0  0  0  0  0  0  0  0
    3.9934    0.8250    0.0000 C   0  0  0  0  0  0  0  0  0  0  0  0
    4.7079    1.2375    0.0000 H   0  0  0  0  0  0  0  0  0  0  0  0
    3.9934    0.0000    0.0000 C   0  0  0  0  0  0  0  0  0  0  0  0
    4.7079   -0.4125    0.0000 H   0  0  0  0  0  0  0  0  0  0  0  0
    3.2789   -0.4125    0.0000 C   0  0  0  0  0  0  0  0  0  0  0  0
    3.2789   -1.2375    0.0000 H   0  0  0  0  0  0  0  0  0  0  0  0
    2.5645    0.0000    0.0000 C   0  0  0  0  0  0  0  0  0  0  0  0
    1.7798   -0.2549    0.0000 N   0  0  0  0  0  0  0  0  0  0  0  0
    1.2949    0.4125    0.0000 C   0  0  0  0  0  0  0  0  0  0  0  0
    1.7798    1.0799    0.0000 C   0  0  0  0  0  0  0  0  0  0  0  0
    1.5249    1.8646    0.0000 H   0  0  0  0  0  0  0  0  0  0  0  0
    2.5645    0.8250    0.0000 C   0  0  0  0  0  0  0  0  0  0  0  0
    0.4699    0.4125    0.0000 H   0  0  0  0  0  0  0  0  0  0  0  0
    1.5249   -1.0396    0.0000 H   0  0  0  0  0  0  0  0  0  0  0  0
  1  2  2  0  0  0  0
  2  3  1  0  0  0  0
  3  4  1  0  0  0  0
  4  5  2  0  0  0  0
  5  6  1  0  0  0  0
  5  7  1  0  0  0  0
  7  8  2  0  0  0  0
  8  9  1  0  0  0  0
  8 10  1  0  0  0  0
 10 11  1  0  0  0  0
 10 12  2  0  0  0  0
  4 12  1  0  0  0  0
 12 13  1  0  0  0  0
  2 14  1  0  0  0  0
 14 15  1  0  0  0  0
 15 16  1  0  0  0  0
 15 17  2  0  0  0  0
 17 18  1  0  0  0  0
 17 19  1  0  0  0  0
 19 20  1  0  0  0  0
 19 21  2  0  0  0  0
 21 22  1  0  0  0  0
 22 23  1  0  0  0  0
 23 24  2  0  0  0  0
 24 25  1  0  0  0  0
 24 26  1  0  0  0  0
 14 26  2  0  0  0  0
 21 26  1  0  0  0  0
 23 27  1  0  0  0  0
 22 28  1  0  0  0  0
M  END
> <Potency>
0.05

> <pIC50>
7.30102999566398

> <Outcome>
Active

> <is_active>
1

$$$$

  Mrv1921 08232120312D          

 38 41  0  0  0  0            999 V2000
    2.1434   -2.8875    0.0000 O   0  0  0  0  0  0  0  0  0  0  0  0
    1.4289   -2.4750    0.0000 C   0  0  0  0  0  0  0  0  0  0  0  0
    0.7145   -2.8875    0.0000 N   0  0  0  0  0  0  0  0  0  0  0  0
    0.7145   -3.7125    0.0000 C   0  0  0  0  0  0  0  0  0  0  0  0
    1.3819   -4.1974    0.0000 C   0  0  0  0  0  0  0  0  0  0  0  0
    2.1665   -3.9425    0.0000 H   0  0  0  0  0  0  0  0  0  0  0  0
    1.1270   -4.9820    0.0000 N   0  0  0  0  0  0  0  0  0  0  0  0
    0.3020   -4.9820    0.0000 C   0  0  0  0  0  0  0  0  0  0  0  0
   -0.2501   -5.5951    0.0000 C   0  0  0  0  0  0  0  0  0  0  0  0
   -1.0570   -5.4236    0.0000 C   0  0  0  0  0  0  0  0  0  0  0  0
   -1.3120   -4.6390    0.0000 C   0  0  0  0  0  0  0  0  0  0  0  0
   -0.7599   -4.0259    0.0000 C   0  0  0  0  0  0  0  0  0  0  0  0
   -1.0149   -3.2413    0.0000 H   0  0  0  0  0  0  0  0  0  0  0  0
    0.0470   -4.1974    0.0000 N   0  0  0  0  0  0  0  0  0  0  0  0
   -2.1189   -4.4675    0.0000 H   0  0  0  0  0  0  0  0  0  0  0  0
   -1.6091   -6.0367    0.0000 H   0  0  0  0  0  0  0  0  0  0  0  0
    0.0049   -6.3798    0.0000 H   0  0  0  0  0  0  0  0  0  0  0  0
    0.0000   -2.4750    0.0000 H   0  0  0  0  0  0  0  0  0  0  0  0
    1.4289   -1.6500    0.0000 C   0  0  0  0  0  0  0  0  0  0  0  0
    0.7145   -1.2375    0.0000 C   0  0  0  0  0  0  0  0  0  0  0  0
   -0.1091   -1.2855    0.0000 H   0  0  0  0  0  0  0  0  0  0  0  0
    0.2611   -1.9268    0.0000 H   0  0  0  0  0  0  0  0  0  0  0  0
    0.7145   -0.4125    0.0000 C   0  0  0  0  0  0  0  0  0  0  0  0
    0.2611    0.2768    0.0000 H   0  0  0  0  0  0  0  0  0  0  0  0
   -0.1091   -0.3645    0.0000 H   0  0  0  0  0  0  0  0  0  0  0  0
    1.4289    0.0000    0.0000 N   0  0  0  0  0  0  0  0  0  0  0  0
    1.4289    0.8250    0.0000 H   0  0  0  0  0  0  0  0  0  0  0  0
    2.1434   -0.4125    0.0000 C   0  0  0  0  0  0  0  0  0  0  0  0
    2.8579    0.0000    0.0000 C   0  0  0  0  0  0  0  0  0  0  0  0
    3.5724   -0.4125    0.0000 C   0  0  0  0  0  0  0  0  0  0  0  0
    4.2868   -0.0000    0.0000 Cl  0  0  0  0  0  0  0  0  0  0  0  0
    3.5724   -1.2375    0.0000 C   0  0  0  0  0  0  0  0  0  0  0  0
    4.2868   -1.6500    0.0000 Cl  0  0  0  0  0  0  0  0  0  0  0  0
    2.8579   -1.6500    0.0000 C   0  0  0  0  0  0  0  0  0  0  0  0
    3.2704   -2.3645    0.0000 H   0  0  0  0  0  0  0  0  0  0  0  0
    2.1434   -1.2375    0.0000 C   0  0  0  0  0  0  0  0  0  0  0  0
    2.8579    0.8250    0.0000 H   0  0  0  0  0  0  0  0  0  0  0  0
    2.1434   -2.0625    0.0000 H   0  0  0  0  0  0  0  0  0  0  0  0
  1  2  2  0  0  0  0
  2  3  1  0  0  0  0
  3  4  1  0  0  0  0
  4  5  2  0  0  0  0
  5  6  1  0  0  0  0
  5  7  1  0  0  0  0
  7  8  2  0  0  0  0
  8  9  1  0  0  0  0
  9 10  2  0  0  0  0
 10 11  1  0  0  0  0
 11 12  2  0  0  0  0
 12 13  1  0  0  0  0
 12 14  1  0  0  0  0
  4 14  1  0  0  0  0
  8 14  1  0  0  0  0
 11 15  1  0  0  0  0
 10 16  1  0  0  0  0
  9 17  1  0  0  0  0
  3 18  1  0  0  0  0
  2 19  1  0  0  0  0
 19 20  1  0  0  0  0
 20 21  1  0  0  0  0
 20 22  1  0  0  0  0
 20 23  1  0  0  0  0
 23 24  1  0  0  0  0
 23 25  1  0  0  0  0
 23 26  1  0  0  0  0
 26 27  1  0  0  0  0
 26 28  1  0  0  0  0
 28 29  2  0  0  0  0
 29 30  1  0  0  0  0
 30 31  1  0  0  0  0
 30 32  2  0  0  0  0
 32 33  1  0  0  0  0
 32 34  1  0  0  0  0
 34 35  1  0  0  0  0
 34 36  2  0  0  0  0
 19 36  1  0  0  0  0
 28 36  1  0  0  0  0
 29 37  1  0  0  0  0
 19 38  1  0  0  0  0
M  END
> <Potency>
1.9797214324808

> <pIC50>
5.703395915217068

> <Outcome>
Active

> <is_active>
1

$$$$

  Mrv1921 08232120312D          

 34 36  0  0  0  0            999 V2000
    1.3222    5.5902    0.0000 C   0  0  0  0  0  0  0  0  0  0  0  0
    1.3222    4.7652    0.0000 O   0  0  0  0  0  0  0  0  0  0  0  0
    2.0367    4.3527    0.0000 C   0  0  0  0  0  0  0  0  0  0  0  0
    2.7512    4.7652    0.0000 C   0  0  0  0  0  0  0  0  0  0  0  0
    2.7512    5.5902    0.0000 H   0  0  0  0  0  0  0  0  0  0  0  0
    3.4656    4.3527    0.0000 C   0  0  0  0  0  0  0  0  0  0  0  0
    4.1801    4.7652    0.0000 H   0  0  0  0  0  0  0  0  0  0  0  0
    3.4656    3.5277    0.0000 C   0  0  0  0  0  0  0  0  0  0  0  0
    4.1801    3.1152    0.0000 H   0  0  0  0  0  0  0  0  0  0  0  0
    2.7512    3.1152    0.0000 C   0  0  0  0  0  0  0  0  0  0  0  0
    2.7512    2.2902    0.0000 C   0  0  0  0  0  0  0  0  0  0  0  0
    3.4186    1.8053    0.0000 N   0  0  0  0  0  0  0  0  0  0  0  0
    3.1637    1.0206    0.0000 C   0  0  0  0  0  0  0  0  0  0  0  0
    3.6486    0.3532    0.0000 C   0  0  0  0  0  0  0  0  0  0  0  0
    3.3130   -0.4005    0.0000 C   0  0  0  0  0  0  0  0  0  0  0  0
    2.5061   -0.5720    0.0000 S   0  0  0  0  0  0  0  0  0  0  0  0
    2.4198   -1.3925    0.0000 C   0  0  0  0  0  0  0  0  0  0  0  0
    1.7054   -1.8050    0.0000 H   0  0  0  0  0  0  0  0  0  0  0  0
    3.1735   -1.7280    0.0000 C   0  0  0  0  0  0  0  0  0  0  0  0
    3.3450   -2.5350    0.0000 H   0  0  0  0  0  0  0  0  0  0  0  0
    3.7255   -1.1149    0.0000 C   0  0  0  0  0  0  0  0  0  0  0  0
    4.5460   -1.2012    0.0000 C   0  0  0  0  0  0  0  0  0  0  0  0
    4.4598   -2.0217    0.0000 H   0  0  0  0  0  0  0  0  0  0  0  0
    5.3665   -1.2874    0.0000 H   0  0  0  0  0  0  0  0  0  0  0  0
    4.6323   -0.3807    0.0000 H   0  0  0  0  0  0  0  0  0  0  0  0
    4.4691    0.4394    0.0000 H   0  0  0  0  0  0  0  0  0  0  0  0
    2.3387    1.0206    0.0000 C   0  0  0  0  0  0  0  0  0  0  0  0
    1.8538    0.3532    0.0000 O   0  0  0  0  0  0  0  0  0  0  0  0
    2.0837    1.8053    0.0000 O   0  0  0  0  0  0  0  0  0  0  0  0
    2.0367    3.5277    0.0000 C   0  0  0  0  0  0  0  0  0  0  0  0
    1.3222    3.1152    0.0000 H   0  0  0  0  0  0  0  0  0  0  0  0
    2.1472    5.5902    0.0000 H   0  0  0  0  0  0  0  0  0  0  0  0
    1.3222    6.4152    0.0000 H   0  0  0  0  0  0  0  0  0  0  0  0
    0.4972    5.5902    0.0000 H   0  0  0  0  0  0  0  0  0  0  0  0
  1  2  1  0  0  0  0
  2  3  1  0  0  0  0
  3  4  2  0  0  0  0
  4  5  1  0  0  0  0
  4  6  1  0  0  0  0
  6  7  1  0  0  0  0
  6  8  2  0  0  0  0
  8  9  1  0  0  0  0
  8 10  1  0  0  0  0
 10 11  1  0  0  0  0
 11 12  2  0  0  0  0
 12 13  1  0  0  0  0
 13 14  2  0  0  0  0
 14 15  1  0  0  0  0
 15 16  1  0  0  0  0
 16 17  1  0  0  0  0
 17 18  1  0  0  0  0
 17 19  2  0  0  0  0
 19 20  1  0  0  0  0
 19 21  1  0  0  0  0
 15 21  2  0  0  0  0
 21 22  1  0  0  0  0
 22 23  1  0  0  0  0
 22 24  1  0  0  0  0
 22 25  1  0  0  0  0
 14 26  1  4  0  0  0
 13 27  1  0  0  0  0
 27 28  2  0  0  0  0
 27 29  1  0  0  0  0
 11 29  1  0  0  0  0
 10 30  2  0  0  0  0
  3 30  1  0  0  0  0
 30 31  1  0  0  0  0
  1 32  1  0  0  0  0
  1 33  1  0  0  0  0
  1 34  1  0  0  0  0
M  END
> <Potency>
1.17008367822022

> <pIC50>
5.931783078689899

> <Outcome>
Active

> <is_active>
1

$$$$

  Mrv1921 08232120312D          

 64 65  0  0  0  0            999 V2000
    5.0013   -0.4125    0.0000 C   0  0  0  0  0  0  0  0  0  0  0  0
    4.2868    0.0000    0.0000 C   0  0  0  0  0  0  0  0  0  0  0  0
    4.2868    0.8250    0.0000 C   0  0  0  0  0  0  0  0  0  0  0  0
    5.0048    1.2314    0.0000 H   0  0  0  0  0  0  0  0  0  0  0  0
    4.2915    1.6500    0.0000 H   0  0  0  0  0  0  0  0  0  0  0  0
    3.5735    1.2395    0.0000 H   0  0  0  0  0  0  0  0  0  0  0  0
    3.5724   -0.4125    0.0000 C   0  0  0  0  0  0  0  0  0  0  0  0
    3.5724   -1.2375    0.0000 C   0  0  0  0  0  0  0  0  0  0  0  0
    2.8579   -1.6500    0.0000 N   0  0  0  0  0  0  0  0  0  0  0  0
    2.1434   -1.2375    0.0000 C   0  0  0  0  0  0  0  0  0  0  0  0
    2.1434   -0.4125    0.0000 O   0  0  0  0  0  0  0  0  0  0  0  0
    1.4289   -1.6500    0.0000 O   0  0  0  0  0  0  0  0  0  0  0  0
    0.7145   -1.2375    0.0000 C   0  0  0  0  0  0  0  0  0  0  0  0
    0.0000   -1.6500    0.0000 C   0  0  0  0  0  0  0  0  0  0  0  0
    0.0000   -2.4750    0.0000 C   0  0  0  0  0  0  0  0  0  0  0  0
    0.7145   -2.8875    0.0000 H   0  0  0  0  0  0  0  0  0  0  0  0
   -0.7145   -2.8875    0.0000 C   0  0  0  0  0  0  0  0  0  0  0  0
   -0.7145   -3.7125    0.0000 H   0  0  0  0  0  0  0  0  0  0  0  0
   -1.4289   -2.4750    0.0000 C   0  0  0  0  0  0  0  0  0  0  0  0
   -2.1434   -2.8875    0.0000 H   0  0  0  0  0  0  0  0  0  0  0  0
   -1.4289   -1.6500    0.0000 C   0  0  0  0  0  0  0  0  0  0  0  0
   -2.1434   -1.2375    0.0000 H   0  0  0  0  0  0  0  0  0  0  0  0
   -0.7145   -1.2375    0.0000 C   0  0  0  0  0  0  0  0  0  0  0  0
   -0.7145   -0.4125    0.0000 H   0  0  0  0  0  0  0  0  0  0  0  0
    1.0847   -0.5003    0.0000 H   0  0  0  0  0  0  0  0  0  0  0  0
    0.3442   -0.5003    0.0000 H   0  0  0  0  0  0  0  0  0  0  0  0
    2.4454   -2.3645    0.0000 H   0  0  0  0  0  0  0  0  0  0  0  0
    4.2868   -1.6500    0.0000 C   0  0  0  0  0  0  0  0  0  0  0  0
    4.2868   -2.4750    0.0000 O   0  0  0  0  0  0  0  0  0  0  0  0
    5.0013   -1.2375    0.0000 N   0  0  0  0  0  0  0  0  0  0  0  0
    5.7158   -1.6500    0.0000 C   0  0  0  0  0  0  0  0  0  0  0  0
    6.4302   -1.2375    0.0000 C   0  0  0  0  0  0  0  0  0  0  0  0
    6.4302   -0.4125    0.0000 C   0  0  0  0  0  0  0  0  0  0  0  0
    5.7628    0.0724    0.0000 C   0  0  0  0  0  0  0  0  0  0  0  0
    5.4244    0.8248    0.0000 H   0  0  0  0  0  0  0  0  0  0  0  0
    6.1213   -0.6706    0.0000 H   0  0  0  0  0  0  0  0  0  0  0  0
    6.0177    0.8570    0.0000 C   0  0  0  0  0  0  0  0  0  0  0  0
    6.2835    1.6381    0.0000 H   0  0  0  0  0  0  0  0  0  0  0  0
    5.7100    1.6225    0.0000 H   0  0  0  0  0  0  0  0  0  0  0  0
    6.8427    0.8570    0.0000 N   0  0  0  0  0  0  0  0  0  0  0  0
    7.5791    1.2290    0.0000 H   0  0  0  0  0  0  0  0  0  0  0  0
    7.0977    0.0724    0.0000 C   0  0  0  0  0  0  0  0  0  0  0  0
    7.8823   -0.1825    0.0000 O   0  0  0  0  0  0  0  0  0  0  0  0
    6.4302    0.4125    0.0000 H   0  0  0  0  0  0  0  0  0  0  0  0
    7.2055   -1.5197    0.0000 H   0  0  0  0  0  0  0  0  0  0  0  0
    7.2055   -0.9553    0.0000 H   0  0  0  0  0  0  0  0  0  0  0  0
    5.7158   -2.4750    0.0000 C   0  0  0  0  0  0  0  0  0  0  0  0
    5.0013   -2.8875    0.0000 O   0  0  0  0  0  0  0  0  0  0  0  0
    4.5888   -3.6020    0.0000 H   0  0  0  0  0  0  0  0  0  0  0  0
    6.4302   -2.8875    0.0000 S   0  0  0  0  0  0  0  0  0  0  0  0
    7.1447   -3.3000    0.0000 O   0  0  0  0  0  0  0  0  0  0  0  0
    6.0177   -3.6020    0.0000 O   0  0  0  0  0  0  0  0  0  0  0  0
    6.8427   -2.1730    0.0000 O   0  0  0  0  0  0  0  0  0  0  0  0
    7.5606   -2.5795    0.0000 H   0  0  0  0  0  0  0  0  0  0  0  0
    5.7158   -3.3000    0.0000 H   0  0  0  0  0  0  0  0  0  0  0  0
    6.4302   -2.0625    0.0000 H   0  0  0  0  0  0  0  0  0  0  0  0
    5.0013   -2.0625    0.0000 H   0  0  0  0  0  0  0  0  0  0  0  0
    3.5724   -2.0625    0.0000 H   0  0  0  0  0  0  0  0  0  0  0  0
    2.7971   -0.1303    0.0000 H   0  0  0  0  0  0  0  0  0  0  0  0
    2.7971   -0.6947    0.0000 H   0  0  0  0  0  0  0  0  0  0  0  0
    3.5724    0.4125    0.0000 H   0  0  0  0  0  0  0  0  0  0  0  0
    5.7246   -0.8094    0.0000 H   0  0  0  0  0  0  0  0  0  0  0  0
    4.2868   -0.8250    0.0000 H   0  0  0  0  0  0  0  0  0  0  0  0
    4.9834    0.4123    0.0000 H   0  0  0  0  0  0  0  0  0  0  0  0
  1  2  1  0  0  0  0
  2  3  1  0  0  0  0
  3  4  1  0  0  0  0
  3  5  1  0  0  0  0
  3  6  1  0  0  0  0
  2  7  1  0  0  0  0
  7  8  1  0  0  0  0
  8  9  1  0  0  0  0
  9 10  1  0  0  0  0
 10 11  2  0  0  0  0
 10 12  1  0  0  0  0
 12 13  1  0  0  0  0
 13 14  1  0  0  0  0
 14 15  2  0  0  0  0
 15 16  1  0  0  0  0
 15 17  1  0  0  0  0
 17 18  1  0  0  0  0
 17 19  2  0  0  0  0
 19 20  1  0  0  0  0
 19 21  1  0  0  0  0
 21 22  1  0  0  0  0
 21 23  2  0  0  0  0
 14 23  1  0  0  0  0
 23 24  1  0  0  0  0
 13 25  1  0  0  0  0
 13 26  1  0  0  0  0
  9 27  1  0  0  0  0
  8 28  1  0  0  0  0
 28 29  2  0  0  0  0
 28 30  1  0  0  0  0
 30 31  1  0  0  0  0
 31 32  1  0  0  0  0
 32 33  1  0  0  0  0
 33 34  1  0  0  0  0
 34 35  1  0  0  0  0
 34 36  1  0  0  0  0
 34 37  1  0  0  0  0
 37 38  1  0  0  0  0
 37 39  1  0  0  0  0
 37 40  1  0  0  0  0
 40 41  1  0  0  0  0
 40 42  1  0  0  0  0
 33 42  1  0  0  0  0
 42 43  2  0  0  0  0
 33 44  1  0  0  0  0
 32 45  1  0  0  0  0
 32 46  1  0  0  0  0
 31 47  1  0  0  0  0
 47 48  1  0  0  0  0
 48 49  1  0  0  0  0
 47 50  1  0  0  0  0
 50 51  2  0  0  0  0
 50 52  2  0  0  0  0
 50 53  1  0  0  0  0
 53 54  1  0  0  0  0
 47 55  1  0  0  0  0
 31 56  1  0  0  0  0
 30 57  1  0  0  0  0
  8 58  1  0  0  0  0
  7 59  1  0  0  0  0
  7 60  1  0  0  0  0
  2 61  1  0  0  0  0
  1 62  1  0  0  0  0
  1 63  1  0  0  0  0
  1 64  1  0  0  0  0
M  END
> <Potency>
0.0300604135864706

> <pIC50>
7.522005048463471

> <Outcome>
Active

> <is_active>
1

$$$$

  Mrv1921 08232120312D          

 51 53  0  0  0  0            999 V2000
   -0.9851   -3.2777    0.0000 C   0  0  0  0  0  0  0  0  0  0  0  0
   -0.1781   -3.1062    0.0000 C   0  0  0  0  0  0  0  0  0  0  0  0
    0.0768   -2.3215    0.0000 O   0  0  0  0  0  0  0  0  0  0  0  0
    0.8838   -2.1500    0.0000 C   0  0  0  0  0  0  0  0  0  0  0  0
    1.4358   -2.7631    0.0000 O   0  0  0  0  0  0  0  0  0  0  0  0
    1.1387   -1.3654    0.0000 C   0  0  0  0  0  0  0  0  0  0  0  0
    0.6538   -0.6979    0.0000 C   0  0  0  0  0  0  0  0  0  0  0  0
   -0.1712   -0.6979    0.0000 C   0  0  0  0  0  0  0  0  0  0  0  0
   -0.1712    0.1271    0.0000 H   0  0  0  0  0  0  0  0  0  0  0  0
   -0.9962   -0.6979    0.0000 H   0  0  0  0  0  0  0  0  0  0  0  0
   -0.1712   -1.5229    0.0000 H   0  0  0  0  0  0  0  0  0  0  0  0
    1.1387   -0.0305    0.0000 N   0  0  0  0  0  0  0  0  0  0  0  0
    0.8838    0.7541    0.0000 S   0  0  0  0  0  0  0  0  0  0  0  0
    0.6288    1.5387    0.0000 C   0  0  0  0  0  0  0  0  0  0  0  0
    1.4135    1.7937    0.0000 H   0  0  0  0  0  0  0  0  0  0  0  0
    0.3739    2.3234    0.0000 H   0  0  0  0  0  0  0  0  0  0  0  0
   -0.1558    1.2838    0.0000 H   0  0  0  0  0  0  0  0  0  0  0  0
    1.6684    1.0091    0.0000 O   0  0  0  0  0  0  0  0  0  0  0  0
    0.0992    0.4992    0.0000 O   0  0  0  0  0  0  0  0  0  0  0  0
    1.9233   -0.2854    0.0000 C   0  0  0  0  0  0  0  0  0  0  0  0
    2.6378    0.1271    0.0000 C   0  0  0  0  0  0  0  0  0  0  0  0
    3.3523   -0.2854    0.0000 C   0  0  0  0  0  0  0  0  0  0  0  0
    3.3523   -1.1104    0.0000 C   0  0  0  0  0  0  0  0  0  0  0  0
    4.0668   -1.5229    0.0000 N   0  0  0  0  0  0  0  0  0  0  0  0
    4.7812   -1.1104    0.0000 C   0  0  0  0  0  0  0  0  0  0  0  0
    4.7812   -0.2854    0.0000 O   0  0  0  0  0  0  0  0  0  0  0  0
    5.4957   -1.5229    0.0000 C   0  0  0  0  0  0  0  0  0  0  0  0
    6.2494   -1.1874    0.0000 C   0  0  0  0  0  0  0  0  0  0  0  0
    6.4209   -0.3804    0.0000 H   0  0  0  0  0  0  0  0  0  0  0  0
    6.8014   -1.8005    0.0000 C   0  0  0  0  0  0  0  0  0  0  0  0
    7.6219   -1.7142    0.0000 H   0  0  0  0  0  0  0  0  0  0  0  0
    6.3889   -2.5150    0.0000 C   0  0  0  0  0  0  0  0  0  0  0  0
    6.7245   -3.2686    0.0000 H   0  0  0  0  0  0  0  0  0  0  0  0
    5.5819   -2.3434    0.0000 O   0  0  0  0  0  0  0  0  0  0  0  0
    4.0668   -2.3479    0.0000 S   0  0  0  0  0  0  0  0  0  0  0  0
    4.0668   -3.1729    0.0000 C   0  0  0  0  0  0  0  0  0  0  0  0
    3.2418   -3.1729    0.0000 H   0  0  0  0  0  0  0  0  0  0  0  0
    4.0668   -3.9979    0.0000 H   0  0  0  0  0  0  0  0  0  0  0  0
    4.8918   -3.1729    0.0000 H   0  0  0  0  0  0  0  0  0  0  0  0
    4.8918   -2.3479    0.0000 O   0  0  0  0  0  0  0  0  0  0  0  0
    3.2418   -2.3479    0.0000 O   0  0  0  0  0  0  0  0  0  0  0  0
    2.6378   -1.5229    0.0000 C   0  0  0  0  0  0  0  0  0  0  0  0
    2.6378   -2.3479    0.0000 H   0  0  0  0  0  0  0  0  0  0  0  0
    1.9233   -1.1104    0.0000 C   0  0  0  0  0  0  0  0  0  0  0  0
    4.0668    0.1271    0.0000 H   0  0  0  0  0  0  0  0  0  0  0  0
    2.6378    0.9521    0.0000 H   0  0  0  0  0  0  0  0  0  0  0  0
    0.0400   -3.9018    0.0000 H   0  0  0  0  0  0  0  0  0  0  0  0
    0.5903   -3.4063    0.0000 H   0  0  0  0  0  0  0  0  0  0  0  0
   -1.1566   -2.4707    0.0000 H   0  0  0  0  0  0  0  0  0  0  0  0
   -1.7921   -3.4492    0.0000 H   0  0  0  0  0  0  0  0  0  0  0  0
   -0.8136   -4.0847    0.0000 H   0  0  0  0  0  0  0  0  0  0  0  0
  1  2  1  0  0  0  0
  2  3  1  0  0  0  0
  3  4  1  0  0  0  0
  4  5  2  0  0  0  0
  4  6  1  0  0  0  0
  6  7  2  0  0  0  0
  7  8  1  0  0  0  0
  8  9  1  0  0  0  0
  8 10  1  0  0  0  0
  8 11  1  0  0  0  0
  7 12  1  0  0  0  0
 12 13  1  0  0  0  0
 13 14  1  0  0  0  0
 14 15  1  0  0  0  0
 14 16  1  0  0  0  0
 14 17  1  0  0  0  0
 13 18  2  0  0  0  0
 13 19  2  0  0  0  0
 12 20  1  0  0  0  0
 20 21  2  0  0  0  0
 21 22  1  0  0  0  0
 22 23  2  0  0  0  0
 23 24  1  0  0  0  0
 24 25  1  0  0  0  0
 25 26  2  0  0  0  0
 25 27  1  0  0  0  0
 27 28  2  0  0  0  0
 28 29  1  0  0  0  0
 28 30  1  0  0  0  0
 30 31  1  0  0  0  0
 30 32  2  0  0  0  0
 32 33  1  0  0  0  0
 32 34  1  0  0  0  0
 27 34  1  0  0  0  0
 24 35  1  0  0  0  0
 35 36  1  0  0  0  0
 36 37  1  0  0  0  0
 36 38  1  0  0  0  0
 36 39  1  0  0  0  0
 35 40  2  0  0  0  0
 35 41  2  0  0  0  0
 23 42  1  0  0  0  0
 42 43  1  0  0  0  0
 42 44  2  0  0  0  0
  6 44  1  0  0  0  0
 20 44  1  0  0  0  0
 22 45  1  0  0  0  0
 21 46  1  0  0  0  0
  2 47  1  0  0  0  0
  2 48  1  0  0  0  0
  1 49  1  0  0  0  0
  1 50  1  0  0  0  0
  1 51  1  0  0  0  0
M  END
> <Potency>
0.281743663714076

> <pIC50>
6.550145842255966

> <Outcome>
Active

> <is_active>
1

$$$$

  Mrv1921 08232120312D          

 38 41  0  0  0  0            999 V2000
    2.2952   -6.9067    0.0000 O   0  0  0  0  0  0  0  0  0  0  0  0
    2.5501   -6.1220    0.0000 C   0  0  0  0  0  0  0  0  0  0  0  0
    1.9981   -5.5089    0.0000 C   0  0  0  0  0  0  0  0  0  0  0  0
    2.2530   -4.7243    0.0000 N   0  0  0  0  0  0  0  0  0  0  0  0
    1.7681   -4.0569    0.0000 C   0  0  0  0  0  0  0  0  0  0  0  0
    0.9431   -4.0569    0.0000 C   0  0  0  0  0  0  0  0  0  0  0  0
    0.5306   -3.3424    0.0000 S   0  0  0  0  0  0  0  0  0  0  0  0
   -0.2944   -3.3424    0.0000 C   0  0  0  0  0  0  0  0  0  0  0  0
   -0.7793   -4.0099    0.0000 N   0  0  0  0  0  0  0  0  0  0  0  0
   -1.5640   -3.7549    0.0000 C   0  0  0  0  0  0  0  0  0  0  0  0
   -2.2784   -4.1674    0.0000 C   0  0  0  0  0  0  0  0  0  0  0  0
   -2.9929   -3.7549    0.0000 C   0  0  0  0  0  0  0  0  0  0  0  0
   -2.9929   -2.9299    0.0000 C   0  0  0  0  0  0  0  0  0  0  0  0
   -2.2784   -2.5174    0.0000 C   0  0  0  0  0  0  0  0  0  0  0  0
   -2.2784   -1.6924    0.0000 H   0  0  0  0  0  0  0  0  0  0  0  0
   -1.5640   -2.9299    0.0000 C   0  0  0  0  0  0  0  0  0  0  0  0
   -0.7793   -2.6750    0.0000 O   0  0  0  0  0  0  0  0  0  0  0  0
   -3.7074   -2.5174    0.0000 H   0  0  0  0  0  0  0  0  0  0  0  0
   -3.7074   -4.1674    0.0000 H   0  0  0  0  0  0  0  0  0  0  0  0
   -2.2784   -4.9924    0.0000 H   0  0  0  0  0  0  0  0  0  0  0  0
    0.2538   -4.5102    0.0000 H   0  0  0  0  0  0  0  0  0  0  0  0
    0.8951   -4.8805    0.0000 H   0  0  0  0  0  0  0  0  0  0  0  0
    2.2530   -3.3894    0.0000 N   0  0  0  0  0  0  0  0  0  0  0  0
    3.0376   -3.6444    0.0000 C   0  0  0  0  0  0  0  0  0  0  0  0
    3.7521   -3.2319    0.0000 C   0  0  0  0  0  0  0  0  0  0  0  0
    4.4666   -3.6444    0.0000 C   0  0  0  0  0  0  0  0  0  0  0  0
    4.4666   -4.4694    0.0000 C   0  0  0  0  0  0  0  0  0  0  0  0
    5.1810   -4.8819    0.0000 Cl  0  0  0  0  0  0  0  0  0  0  0  0
    3.7521   -4.8819    0.0000 C   0  0  0  0  0  0  0  0  0  0  0  0
    4.2956   -5.5026    0.0000 H   0  0  0  0  0  0  0  0  0  0  0  0
    3.0376   -4.4694    0.0000 C   0  0  0  0  0  0  0  0  0  0  0  0
    5.1810   -3.2319    0.0000 H   0  0  0  0  0  0  0  0  0  0  0  0
    3.7521   -2.4069    0.0000 H   0  0  0  0  0  0  0  0  0  0  0  0
    1.2000   -5.3001    0.0000 H   0  0  0  0  0  0  0  0  0  0  0  0
    1.3539   -6.0244    0.0000 H   0  0  0  0  0  0  0  0  0  0  0  0
    3.3482   -6.3309    0.0000 H   0  0  0  0  0  0  0  0  0  0  0  0
    3.1943   -5.6066    0.0000 H   0  0  0  0  0  0  0  0  0  0  0  0
    1.4882   -7.0782    0.0000 H   0  0  0  0  0  0  0  0  0  0  0  0
  1  2  1  0  0  0  0
  2  3  1  0  0  0  0
  3  4  1  0  0  0  0
  4  5  1  0  0  0  0
  5  6  1  0  0  0  0
  6  7  1  0  0  0  0
  7  8  1  0  0  0  0
  8  9  2  0  0  0  0
  9 10  1  0  0  0  0
 10 11  2  0  0  0  0
 11 12  1  0  0  0  0
 12 13  2  0  0  0  0
 13 14  1  0  0  0  0
 14 15  1  0  0  0  0
 14 16  2  0  0  0  0
 10 16  1  0  0  0  0
 16 17  1  0  0  0  0
  8 17  1  0  0  0  0
 13 18  1  0  0  0  0
 12 19  1  0  0  0  0
 11 20  1  0  0  0  0
  6 21  1  0  0  0  0
  6 22  1  0  0  0  0
  5 23  2  0  0  0  0
 23 24  1  0  0  0  0
 24 25  2  0  0  0  0
 25 26  1  0  0  0  0
 26 27  2  0  0  0  0
 27 28  1  0  0  0  0
 27 29  1  0  0  0  0
 29 30  1  0  0  0  0
 29 31  2  0  0  0  0
  4 31  1  0  0  0  0
 24 31  1  0  0  0  0
 26 32  1  0  0  0  0
 25 33  1  0  0  0  0
  3 34  1  0  0  0  0
  3 35  1  0  0  0  0
  2 36  1  0  0  0  0
  2 37  1  0  0  0  0
  1 38  1  0  0  0  0
M  END
> <Potency>
0.326702579740179

> <pIC50>
6.485847436193368

> <Outcome>
Active

> <is_active>
1

$$$$

  Mrv1921 08232120312D          

 39 40  0  0  0  0            999 V2000
   -0.9355    1.8414    0.0000 C   0  0  0  0  0  0  0  0  0  0  0  0
   -0.1105    1.8414    0.0000 S   0  0  0  0  0  0  0  0  0  0  0  0
    0.3020    1.1270    0.0000 C   0  0  0  0  0  0  0  0  0  0  0  0
    1.1270    1.1270    0.0000 C   0  0  0  0  0  0  0  0  0  0  0  0
    1.5395    1.8414    0.0000 C   0  0  0  0  0  0  0  0  0  0  0  0
    1.9520    2.5559    0.0000 N   0  0  0  0  0  0  0  0  0  0  0  0
    1.5395    0.4125    0.0000 C   0  0  0  0  0  0  0  0  0  0  0  0
    1.9520    1.1270    0.0000 C   0  0  0  0  0  0  0  0  0  0  0  0
    2.3645    1.8414    0.0000 H   0  0  0  0  0  0  0  0  0  0  0  0
    2.3645    0.4125    0.0000 H   0  0  0  0  0  0  0  0  0  0  0  0
    2.7770    1.1270    0.0000 C   0  0  0  0  0  0  0  0  0  0  0  0
    3.5894    1.2702    0.0000 H   0  0  0  0  0  0  0  0  0  0  0  0
    3.3073    1.7590    0.0000 H   0  0  0  0  0  0  0  0  0  0  0  0
    3.1895    0.4125    0.0000 C   0  0  0  0  0  0  0  0  0  0  0  0
    3.7409   -0.2011    0.0000 H   0  0  0  0  0  0  0  0  0  0  0  0
    4.0084    0.3128    0.0000 H   0  0  0  0  0  0  0  0  0  0  0  0
    2.7770   -0.3020    0.0000 C   0  0  0  0  0  0  0  0  0  0  0  0
    2.5265   -1.0880    0.0000 H   0  0  0  0  0  0  0  0  0  0  0  0
    3.1079   -1.0577    0.0000 H   0  0  0  0  0  0  0  0  0  0  0  0
    1.9520   -0.3020    0.0000 C   0  0  0  0  0  0  0  0  0  0  0  0
    2.0952   -1.1144    0.0000 H   0  0  0  0  0  0  0  0  0  0  0  0
    2.5840   -0.8323    0.0000 H   0  0  0  0  0  0  0  0  0  0  0  0
    1.1270   -0.3020    0.0000 C   0  0  0  0  0  0  0  0  0  0  0  0
    1.5395   -1.0164    0.0000 C   0  0  0  0  0  0  0  0  0  0  0  0
    1.9520   -1.7309    0.0000 N   0  0  0  0  0  0  0  0  0  0  0  0
    0.3020   -0.3020    0.0000 C   0  0  0  0  0  0  0  0  0  0  0  0
   -0.1105   -1.0164    0.0000 N   0  0  0  0  0  0  0  0  0  0  0  0
    0.3020   -1.7309    0.0000 C   0  0  0  0  0  0  0  0  0  0  0  0
    1.1270   -1.7309    0.0000 O   0  0  0  0  0  0  0  0  0  0  0  0
   -0.1105   -2.4454    0.0000 C   0  0  0  0  0  0  0  0  0  0  0  0
    0.3020   -3.1599    0.0000 Cl  0  0  0  0  0  0  0  0  0  0  0  0
   -0.8478   -2.0751    0.0000 H   0  0  0  0  0  0  0  0  0  0  0  0
   -0.8478   -2.8156    0.0000 H   0  0  0  0  0  0  0  0  0  0  0  0
   -0.9355   -1.0164    0.0000 H   0  0  0  0  0  0  0  0  0  0  0  0
   -0.1105    0.4125    0.0000 N   0  0  0  0  0  0  0  0  0  0  0  0
   -0.9355    0.4125    0.0000 H   0  0  0  0  0  0  0  0  0  0  0  0
   -0.9355    2.6664    0.0000 H   0  0  0  0  0  0  0  0  0  0  0  0
   -1.7605    1.8414    0.0000 H   0  0  0  0  0  0  0  0  0  0  0  0
   -0.9355    1.0164    0.0000 H   0  0  0  0  0  0  0  0  0  0  0  0
  1  2  1  0  0  0  0
  2  3  1  0  0  0  0
  3  4  2  0  0  0  0
  4  5  1  0  0  0  0
  5  6  3  0  0  0  0
  4  7  1  0  0  0  0
  7  8  1  0  0  0  0
  8  9  1  0  0  0  0
  8 10  1  0  0  0  0
  8 11  1  0  0  0  0
 11 12  1  0  0  0  0
 11 13  1  0  0  0  0
 11 14  1  0  0  0  0
 14 15  1  0  0  0  0
 14 16  1  0  0  0  0
 14 17  1  0  0  0  0
 17 18  1  0  0  0  0
 17 19  1  0  0  0  0
 17 20  1  0  0  0  0
  7 20  1  0  0  0  0
 20 21  1  0  0  0  0
 20 22  1  0  0  0  0
  7 23  1  0  0  0  0
 23 24  1  0  0  0  0
 24 25  3  0  0  0  0
 23 26  2  0  0  0  0
 26 27  1  0  0  0  0
 27 28  1  0  0  0  0
 28 29  2  0  0  0  0
 28 30  1  0  0  0  0
 30 31  1  0  0  0  0
 30 32  1  0  0  0  0
 30 33  1  0  0  0  0
 27 34  1  0  0  0  0
 26 35  1  0  0  0  0
  3 35  1  0  0  0  0
 35 36  1  0  0  0  0
  1 37  1  0  0  0  0
  1 38  1  0  0  0  0
  1 39  1  0  0  0  0
M  END
> <Potency>
1.14078610355593

> <pIC50>
5.942795777802287

> <Outcome>
Active

> <is_active>
1

$$$$

  Mrv1921 08232120312D          

 40 42  0  0  0  0            999 V2000
    1.4521   -2.7050    0.0000 C   0  0  0  0  0  0  0  0  0  0  0  0
    0.6674   -2.9599    0.0000 C   0  0  0  0  0  0  0  0  0  0  0  0
    0.4125   -3.7445    0.0000 C   0  0  0  0  0  0  0  0  0  0  0  0
    0.8974   -4.4120    0.0000 H   0  0  0  0  0  0  0  0  0  0  0  0
   -0.4125   -3.7445    0.0000 C   0  0  0  0  0  0  0  0  0  0  0  0
   -0.8974   -4.4120    0.0000 C   0  0  0  0  0  0  0  0  0  0  0  0
   -1.7179   -4.3257    0.0000 O   0  0  0  0  0  0  0  0  0  0  0  0
   -0.5619   -5.1657    0.0000 C   0  0  0  0  0  0  0  0  0  0  0  0
   -1.0468   -5.8331    0.0000 Cl  0  0  0  0  0  0  0  0  0  0  0  0
    0.1326   -5.6110    0.0000 H   0  0  0  0  0  0  0  0  0  0  0  0
    0.2100   -4.8745    0.0000 H   0  0  0  0  0  0  0  0  0  0  0  0
   -0.6674   -2.9599    0.0000 C   0  0  0  0  0  0  0  0  0  0  0  0
   -1.4521   -2.7050    0.0000 C   0  0  0  0  0  0  0  0  0  0  0  0
   -1.1971   -1.9204    0.0000 H   0  0  0  0  0  0  0  0  0  0  0  0
   -2.2367   -2.4500    0.0000 H   0  0  0  0  0  0  0  0  0  0  0  0
   -1.7070   -3.4896    0.0000 H   0  0  0  0  0  0  0  0  0  0  0  0
    0.0000   -2.4750    0.0000 N   0  0  0  0  0  0  0  0  0  0  0  0
    0.0000   -1.6500    0.0000 C   0  0  0  0  0  0  0  0  0  0  0  0
    0.7145   -1.2375    0.0000 C   0  0  0  0  0  0  0  0  0  0  0  0
    0.7145   -0.4125    0.0000 C   0  0  0  0  0  0  0  0  0  0  0  0
    0.5712    0.4000    0.0000 H   0  0  0  0  0  0  0  0  0  0  0  0
    0.0825    0.1178    0.0000 H   0  0  0  0  0  0  0  0  0  0  0  0
    1.4289    0.0000    0.0000 O   0  0  0  0  0  0  0  0  0  0  0  0
    2.1434   -0.4125    0.0000 C   0  0  0  0  0  0  0  0  0  0  0  0
    2.8579    0.0000    0.0000 C   0  0  0  0  0  0  0  0  0  0  0  0
    3.5724   -0.4125    0.0000 C   0  0  0  0  0  0  0  0  0  0  0  0
    3.5724   -1.2375    0.0000 C   0  0  0  0  0  0  0  0  0  0  0  0
    2.8579   -1.6500    0.0000 C   0  0  0  0  0  0  0  0  0  0  0  0
    2.8579   -2.4750    0.0000 H   0  0  0  0  0  0  0  0  0  0  0  0
    2.1434   -1.2375    0.0000 C   0  0  0  0  0  0  0  0  0  0  0  0
    1.4289   -1.6500    0.0000 O   0  0  0  0  0  0  0  0  0  0  0  0
    4.2868   -1.6500    0.0000 H   0  0  0  0  0  0  0  0  0  0  0  0
    4.2868   -0.0000    0.0000 H   0  0  0  0  0  0  0  0  0  0  0  0
    2.8579    0.8250    0.0000 H   0  0  0  0  0  0  0  0  0  0  0  0
    0.0000   -0.8250    0.0000 H   0  0  0  0  0  0  0  0  0  0  0  0
   -0.4533   -0.9607    0.0000 H   0  0  0  0  0  0  0  0  0  0  0  0
   -0.8236   -1.6020    0.0000 H   0  0  0  0  0  0  0  0  0  0  0  0
    1.7070   -3.4896    0.0000 H   0  0  0  0  0  0  0  0  0  0  0  0
    2.2367   -2.4500    0.0000 H   0  0  0  0  0  0  0  0  0  0  0  0
    1.1971   -1.9204    0.0000 H   0  0  0  0  0  0  0  0  0  0  0  0
  1  2  1  0  0  0  0
  2  3  2  0  0  0  0
  3  4  1  0  0  0  0
  3  5  1  0  0  0  0
  5  6  1  0  0  0  0
  6  7  2  0  0  0  0
  6  8  1  0  0  0  0
  8  9  1  0  0  0  0
  8 10  1  0  0  0  0
  8 11  1  0  0  0  0
  5 12  2  0  0  0  0
 12 13  1  0  0  0  0
 13 14  1  0  0  0  0
 13 15  1  0  0  0  0
 13 16  1  0  0  0  0
 12 17  1  0  0  0  0
  2 17  1  0  0  0  0
 17 18  1  0  0  0  0
 18 19  1  0  0  0  0
 19 20  1  0  0  0  0
 20 21  1  0  0  0  0
 20 22  1  0  0  0  0
 20 23  1  0  0  0  0
 23 24  1  0  0  0  0
 24 25  2  0  0  0  0
 25 26  1  0  0  0  0
 26 27  2  0  0  0  0
 27 28  1  0  0  0  0
 28 29  1  0  0  0  0
 28 30  2  0  0  0  0
 24 30  1  0  0  0  0
 30 31  1  0  0  0  0
 19 31  1  0  0  0  0
 27 32  1  0  0  0  0
 26 33  1  0  0  0  0
 25 34  1  0  0  0  0
 19 35  1  0  0  0  0
 18 36  1  0  0  0  0
 18 37  1  0  0  0  0
  1 38  1  0  0  0  0
  1 39  1  0  0  0  0
  1 40  1  0  0  0  0
M  END
> <Potency>
2.81797537437076

> <pIC50>
5.550062806408217

> <Outcome>
Active

> <is_active>
1

$$$$

  Mrv1921 08232120312D          

 46 49  0  0  0  0            999 V2000
   -3.6610   -4.5769    0.0000 C   0  0  0  0  0  0  0  0  0  0  0  0
   -3.4060   -3.7923    0.0000 N   0  0  0  0  0  0  0  0  0  0  0  0
   -2.5990   -3.6207    0.0000 C   0  0  0  0  0  0  0  0  0  0  0  0
   -2.3441   -2.8361    0.0000 C   0  0  0  0  0  0  0  0  0  0  0  0
   -2.8961   -2.2230    0.0000 H   0  0  0  0  0  0  0  0  0  0  0  0
   -1.5371   -2.6646    0.0000 C   0  0  0  0  0  0  0  0  0  0  0  0
   -1.2822   -1.8800    0.0000 H   0  0  0  0  0  0  0  0  0  0  0  0
   -0.9851   -3.2777    0.0000 C   0  0  0  0  0  0  0  0  0  0  0  0
   -0.1781   -3.1062    0.0000 N   0  0  0  0  0  0  0  0  0  0  0  0
    0.0768   -2.3215    0.0000 C   0  0  0  0  0  0  0  0  0  0  0  0
   -0.4752   -1.7084    0.0000 O   0  0  0  0  0  0  0  0  0  0  0  0
    0.8838   -2.1500    0.0000 C   0  0  0  0  0  0  0  0  0  0  0  0
    1.1387   -1.3654    0.0000 N   0  0  0  0  0  0  0  0  0  0  0  0
    0.6538   -0.6979    0.0000 N   0  0  0  0  0  0  0  0  0  0  0  0
    1.1387   -0.0305    0.0000 N   0  0  0  0  0  0  0  0  0  0  0  0
    1.9233   -0.2854    0.0000 C   0  0  0  0  0  0  0  0  0  0  0  0
    2.6378    0.1271    0.0000 C   0  0  0  0  0  0  0  0  0  0  0  0
    3.3523   -0.2854    0.0000 C   0  0  0  0  0  0  0  0  0  0  0  0
    3.3523   -1.1104    0.0000 C   0  0  0  0  0  0  0  0  0  0  0  0
    2.6378   -1.5229    0.0000 C   0  0  0  0  0  0  0  0  0  0  0  0
    2.6378   -2.3479    0.0000 H   0  0  0  0  0  0  0  0  0  0  0  0
    1.9233   -1.1104    0.0000 C   0  0  0  0  0  0  0  0  0  0  0  0
    4.0668   -1.5229    0.0000 H   0  0  0  0  0  0  0  0  0  0  0  0
    4.0668    0.1271    0.0000 H   0  0  0  0  0  0  0  0  0  0  0  0
    2.6378    0.9521    0.0000 H   0  0  0  0  0  0  0  0  0  0  0  0
    1.1019   -2.9456    0.0000 H   0  0  0  0  0  0  0  0  0  0  0  0
    1.6523   -2.4501    0.0000 H   0  0  0  0  0  0  0  0  0  0  0  0
    0.3739   -3.7192    0.0000 C   0  0  0  0  0  0  0  0  0  0  0  0
    1.1809   -3.5477    0.0000 C   0  0  0  0  0  0  0  0  0  0  0  0
    1.9302   -3.2025    0.0000 H   0  0  0  0  0  0  0  0  0  0  0  0
    1.7329   -4.1608    0.0000 C   0  0  0  0  0  0  0  0  0  0  0  0
    2.5399   -3.9893    0.0000 H   0  0  0  0  0  0  0  0  0  0  0  0
    1.4780   -4.9454    0.0000 C   0  0  0  0  0  0  0  0  0  0  0  0
    2.0300   -5.5585    0.0000 H   0  0  0  0  0  0  0  0  0  0  0  0
    0.6710   -5.1170    0.0000 C   0  0  0  0  0  0  0  0  0  0  0  0
    0.4161   -5.9016    0.0000 Cl  0  0  0  0  0  0  0  0  0  0  0  0
    0.1190   -4.5039    0.0000 C   0  0  0  0  0  0  0  0  0  0  0  0
   -0.6880   -4.6754    0.0000 H   0  0  0  0  0  0  0  0  0  0  0  0
   -1.2400   -4.0623    0.0000 C   0  0  0  0  0  0  0  0  0  0  0  0
   -1.4950   -4.8469    0.0000 H   0  0  0  0  0  0  0  0  0  0  0  0
   -2.0470   -4.2338    0.0000 C   0  0  0  0  0  0  0  0  0  0  0  0
   -2.6601   -4.7859    0.0000 H   0  0  0  0  0  0  0  0  0  0  0  0
   -3.9580   -3.1792    0.0000 H   0  0  0  0  0  0  0  0  0  0  0  0
   -4.4456   -4.3219    0.0000 H   0  0  0  0  0  0  0  0  0  0  0  0
   -3.9159   -5.3615    0.0000 H   0  0  0  0  0  0  0  0  0  0  0  0
   -2.8763   -4.8318    0.0000 H   0  0  0  0  0  0  0  0  0  0  0  0
  1  2  1  0  0  0  0
  2  3  1  0  0  0  0
  3  4  2  0  0  0  0
  4  5  1  0  0  0  0
  4  6  1  0  0  0  0
  6  7  1  0  0  0  0
  6  8  2  0  0  0  0
  8  9  1  0  0  0  0
  9 10  1  0  0  0  0
 10 11  2  0  0  0  0
 10 12  1  0  0  0  0
 12 13  1  0  0  0  0
 13 14  1  0  0  0  0
 14 15  2  0  0  0  0
 15 16  1  0  0  0  0
 16 17  2  0  0  0  0
 17 18  1  0  0  0  0
 18 19  2  0  0  0  0
 19 20  1  0  0  0  0
 20 21  1  0  0  0  0
 20 22  2  0  0  0  0
 13 22  1  0  0  0  0
 16 22  1  0  0  0  0
 19 23  1  0  0  0  0
 18 24  1  0  0  0  0
 17 25  1  0  0  0  0
 12 26  1  0  0  0  0
 12 27  1  0  0  0  0
  9 28  1  0  0  0  0
 28 29  2  0  0  0  0
 29 30  1  0  0  0  0
 29 31  1  0  0  0  0
 31 32  1  0  0  0  0
 31 33  2  0  0  0  0
 33 34  1  0  0  0  0
 33 35  1  0  0  0  0
 35 36  1  0  0  0  0
 35 37  2  0  0  0  0
 28 37  1  0  0  0  0
 37 38  1  0  0  0  0
  8 39  1  0  0  0  0
 39 40  1  0  0  0  0
 39 41  2  0  0  0  0
  3 41  1  0  0  0  0
 41 42  1  0  0  0  0
  2 43  1  0  0  0  0
  1 44  1  0  0  0  0
  1 45  1  0  0  0  0
  1 46  1  0  0  0  0
M  END
> <Potency>
5.33746386623639

> <pIC50>
5.272665052060083

> <Outcome>
Active

> <is_active>
1

$$$$

  Mrv1921 08232120312D          

 40 42  0  0  0  0            999 V2000
    4.1801    4.7652    0.0000 O   0  0  0  0  0  0  0  0  0  0  0  0
    3.4656    4.3527    0.0000 C   0  0  0  0  0  0  0  0  0  0  0  0
    2.7512    4.7652    0.0000 N   0  0  0  0  0  0  0  0  0  0  0  0
    2.7512    5.5902    0.0000 C   0  0  0  0  0  0  0  0  0  0  0  0
    2.0367    6.0027    0.0000 C   0  0  0  0  0  0  0  0  0  0  0  0
    1.3222    5.5902    0.0000 H   0  0  0  0  0  0  0  0  0  0  0  0
    2.0367    6.8277    0.0000 C   0  0  0  0  0  0  0  0  0  0  0  0
    1.3222    7.2402    0.0000 H   0  0  0  0  0  0  0  0  0  0  0  0
    2.7512    7.2402    0.0000 C   0  0  0  0  0  0  0  0  0  0  0  0
    2.7512    8.0652    0.0000 H   0  0  0  0  0  0  0  0  0  0  0  0
    3.4656    6.8277    0.0000 C   0  0  0  0  0  0  0  0  0  0  0  0
    4.1801    7.2402    0.0000 C   0  0  0  0  0  0  0  0  0  0  0  0
    4.8946    7.6527    0.0000 F   0  0  0  0  0  0  0  0  0  0  0  0
    3.7676    7.9547    0.0000 F   0  0  0  0  0  0  0  0  0  0  0  0
    4.5926    6.5257    0.0000 F   0  0  0  0  0  0  0  0  0  0  0  0
    3.4656    6.0027    0.0000 C   0  0  0  0  0  0  0  0  0  0  0  0
    4.1801    5.5902    0.0000 H   0  0  0  0  0  0  0  0  0  0  0  0
    2.0367    4.3527    0.0000 H   0  0  0  0  0  0  0  0  0  0  0  0
    3.4656    3.5277    0.0000 N   0  0  0  0  0  0  0  0  0  0  0  0
    4.1801    3.1152    0.0000 C   0  0  0  0  0  0  0  0  0  0  0  0
    4.8946    3.5277    0.0000 C   0  0  0  0  0  0  0  0  0  0  0  0
    4.8946    4.3527    0.0000 H   0  0  0  0  0  0  0  0  0  0  0  0
    5.6091    3.1152    0.0000 C   0  0  0  0  0  0  0  0  0  0  0  0
    6.3235    3.5277    0.0000 H   0  0  0  0  0  0  0  0  0  0  0  0
    5.6091    2.2902    0.0000 C   0  0  0  0  0  0  0  0  0  0  0  0
    6.3235    1.8777    0.0000 H   0  0  0  0  0  0  0  0  0  0  0  0
    4.8946    1.8777    0.0000 C   0  0  0  0  0  0  0  0  0  0  0  0
    4.8946    1.0527    0.0000 H   0  0  0  0  0  0  0  0  0  0  0  0
    4.1801    2.2902    0.0000 C   0  0  0  0  0  0  0  0  0  0  0  0
    3.4656    1.8777    0.0000 S   0  0  0  0  0  0  0  0  0  0  0  0
    3.4656    1.0527    0.0000 C   0  0  0  0  0  0  0  0  0  0  0  0
    4.1331    0.5678    0.0000 N   0  0  0  0  0  0  0  0  0  0  0  0
    3.8781   -0.2169    0.0000 C   0  0  0  0  0  0  0  0  0  0  0  0
    4.3631   -0.8843    0.0000 H   0  0  0  0  0  0  0  0  0  0  0  0
    3.0531   -0.2169    0.0000 C   0  0  0  0  0  0  0  0  0  0  0  0
    2.5682   -0.8843    0.0000 N   0  3  0  0  0  0  0  0  0  0  0  0
    2.9038   -1.6380    0.0000 O   0  0  0  0  0  0  0  0  0  0  0  0
    1.7477   -0.7981    0.0000 O   0  5  0  0  0  0  0  0  0  0  0  0
    2.7982    0.5678    0.0000 S   0  0  0  0  0  0  0  0  0  0  0  0
    2.7512    3.1152    0.0000 H   0  0  0  0  0  0  0  0  0  0  0  0
  1  2  2  0  0  0  0
  2  3  1  0  0  0  0
  3  4  1  0  0  0  0
  4  5  2  0  0  0  0
  5  6  1  0  0  0  0
  5  7  1  0  0  0  0
  7  8  1  0  0  0  0
  7  9  2  0  0  0  0
  9 10  1  0  0  0  0
  9 11  1  0  0  0  0
 11 12  1  0  0  0  0
 12 13  1  0  0  0  0
 12 14  1  0  0  0  0
 12 15  1  0  0  0  0
 11 16  2  0  0  0  0
  4 16  1  0  0  0  0
 16 17  1  0  0  0  0
  3 18  1  0  0  0  0
  2 19  1  0  0  0  0
 19 20  1  0  0  0  0
 20 21  2  0  0  0  0
 21 22  1  0  0  0  0
 21 23  1  0  0  0  0
 23 24  1  0  0  0  0
 23 25  2  0  0  0  0
 25 26  1  0  0  0  0
 25 27  1  0  0  0  0
 27 28  1  0  0  0  0
 27 29  2  0  0  0  0
 20 29  1  0  0  0  0
 29 30  1  0  0  0  0
 30 31  1  0  0  0  0
 31 32  2  0  0  0  0
 32 33  1  0  0  0  0
 33 34  1  0  0  0  0
 33 35  2  0  0  0  0
 35 36  1  0  0  0  0
 36 37  2  0  0  0  0
 36 38  1  0  0  0  0
 35 39  1  0  0  0  0
 31 39  1  0  0  0  0
 19 40  1  0  0  0  0
M  CHG  2  36   1  38  -1
M  END
> <Potency>
6.26234482950641

> <pIC50>
5.203263022086616

> <Outcome>
Active

> <is_active>
1

$$$$

  Mrv1921 08232120312D          

 53 57  0  0  0  0            999 V2000
    1.2460   -8.1245    0.0000 C   0  0  0  0  0  0  0  0  0  0  0  0
    1.7309   -7.4570    0.0000 C   0  0  0  0  0  0  0  0  0  0  0  0
    1.4760   -6.6724    0.0000 N   0  0  0  0  0  0  0  0  0  0  0  0
    2.1434   -6.1875    0.0000 C   0  0  0  0  0  0  0  0  0  0  0  0
    2.1434   -5.3625    0.0000 C   0  0  0  0  0  0  0  0  0  0  0  0
    1.4289   -4.9500    0.0000 N   0  0  0  0  0  0  0  0  0  0  0  0
    0.7145   -5.3625    0.0000 C   0  0  0  0  0  0  0  0  0  0  0  0
    0.3442   -6.0997    0.0000 H   0  0  0  0  0  0  0  0  0  0  0  0
    1.0847   -6.0997    0.0000 H   0  0  0  0  0  0  0  0  0  0  0  0
    0.0000   -4.9500    0.0000 C   0  0  0  0  0  0  0  0  0  0  0  0
   -0.7145   -5.3625    0.0000 C   0  0  0  0  0  0  0  0  0  0  0  0
   -1.4289   -4.9500    0.0000 C   0  0  0  0  0  0  0  0  0  0  0  0
   -1.4289   -4.1250    0.0000 C   0  0  0  0  0  0  0  0  0  0  0  0
   -2.1434   -3.7125    0.0000 Cl  0  0  0  0  0  0  0  0  0  0  0  0
   -0.7145   -3.7125    0.0000 C   0  0  0  0  0  0  0  0  0  0  0  0
   -0.7145   -2.8875    0.0000 H   0  0  0  0  0  0  0  0  0  0  0  0
    0.0000   -4.1250    0.0000 C   0  0  0  0  0  0  0  0  0  0  0  0
    0.7145   -3.7125    0.0000 C   0  0  0  0  0  0  0  0  0  0  0  0
    0.7145   -2.8875    0.0000 C   0  0  0  0  0  0  0  0  0  0  0  0
    0.0000   -2.4750    0.0000 O   0  0  0  0  0  0  0  0  0  0  0  0
    1.4289   -2.4750    0.0000 N   0  0  0  0  0  0  0  0  0  0  0  0
    1.4289   -1.6500    0.0000 C   0  0  0  0  0  0  0  0  0  0  0  0
    0.7145   -1.2375    0.0000 C   0  0  0  0  0  0  0  0  0  0  0  0
    0.0000   -1.6500    0.0000 H   0  0  0  0  0  0  0  0  0  0  0  0
    0.7145   -0.4125    0.0000 N   0  0  0  0  0  0  0  0  0  0  0  0
    1.4289    0.0000    0.0000 C   0  0  0  0  0  0  0  0  0  0  0  0
    1.4289    0.8250    0.0000 H   0  0  0  0  0  0  0  0  0  0  0  0
    2.1434   -0.4125    0.0000 C   0  0  0  0  0  0  0  0  0  0  0  0
    2.8579    0.0000    0.0000 C   0  0  0  0  0  0  0  0  0  0  0  0
    3.5724   -0.4125    0.0000 C   0  0  0  0  0  0  0  0  0  0  0  0
    3.5724   -1.2375    0.0000 C   0  0  0  0  0  0  0  0  0  0  0  0
    4.2868   -1.6500    0.0000 F   0  0  0  0  0  0  0  0  0  0  0  0
    2.8579   -1.6500    0.0000 C   0  0  0  0  0  0  0  0  0  0  0  0
    2.8579   -2.4750    0.0000 H   0  0  0  0  0  0  0  0  0  0  0  0
    2.1434   -1.2375    0.0000 C   0  0  0  0  0  0  0  0  0  0  0  0
    4.2868   -0.0000    0.0000 H   0  0  0  0  0  0  0  0  0  0  0  0
    2.8579    0.8250    0.0000 H   0  0  0  0  0  0  0  0  0  0  0  0
    2.2539   -2.4750    0.0000 H   0  0  0  0  0  0  0  0  0  0  0  0
    1.4289   -3.3000    0.0000 H   0  0  0  0  0  0  0  0  0  0  0  0
    1.4289   -4.1250    0.0000 C   0  0  0  0  0  0  0  0  0  0  0  0
    2.2042   -4.4072    0.0000 H   0  0  0  0  0  0  0  0  0  0  0  0
    2.2042   -3.8428    0.0000 H   0  0  0  0  0  0  0  0  0  0  0  0
   -2.1434   -5.3625    0.0000 H   0  0  0  0  0  0  0  0  0  0  0  0
   -0.7145   -6.1875    0.0000 H   0  0  0  0  0  0  0  0  0  0  0  0
    2.9670   -5.3145    0.0000 H   0  0  0  0  0  0  0  0  0  0  0  0
    2.5968   -4.6732    0.0000 H   0  0  0  0  0  0  0  0  0  0  0  0
    2.8109   -6.6724    0.0000 C   0  0  0  0  0  0  0  0  0  0  0  0
    3.5955   -6.4175    0.0000 H   0  0  0  0  0  0  0  0  0  0  0  0
    2.5559   -7.4570    0.0000 N   0  0  0  0  0  0  0  0  0  0  0  0
    3.0408   -8.1245    0.0000 H   0  0  0  0  0  0  0  0  0  0  0  0
    0.5786   -7.6396    0.0000 H   0  0  0  0  0  0  0  0  0  0  0  0
    0.7611   -8.7919    0.0000 H   0  0  0  0  0  0  0  0  0  0  0  0
    1.9134   -8.6094    0.0000 H   0  0  0  0  0  0  0  0  0  0  0  0
  1  2  1  0  0  0  0
  2  3  2  0  0  0  0
  3  4  1  0  0  0  0
  4  5  1  0  0  0  0
  5  6  1  0  0  0  0
  6  7  1  0  0  0  0
  7  8  1  0  0  0  0
  7  9  1  0  0  0  0
  7 10  1  0  0  0  0
 10 11  2  0  0  0  0
 11 12  1  0  0  0  0
 12 13  2  0  0  0  0
 13 14  1  0  0  0  0
 13 15  1  0  0  0  0
 15 16  1  0  0  0  0
 15 17  2  0  0  0  0
 10 17  1  0  0  0  0
 17 18  1  0  0  0  0
 18 19  1  0  0  0  0
 19 20  2  0  0  0  0
 19 21  1  0  0  0  0
 21 22  1  0  0  0  0
 22 23  2  0  0  0  0
 23 24  1  0  0  0  0
 23 25  1  0  0  0  0
 25 26  2  0  0  0  0
 26 27  1  0  0  0  0
 26 28  1  0  0  0  0
 28 29  2  0  0  0  0
 29 30  1  0  0  0  0
 30 31  2  0  0  0  0
 31 32  1  0  0  0  0
 31 33  1  0  0  0  0
 33 34  1  0  0  0  0
 33 35  2  0  0  0  0
 22 35  1  0  0  0  0
 28 35  1  0  0  0  0
 30 36  1  0  0  0  0
 29 37  1  0  0  0  0
 21 38  1  0  0  0  0
 18 39  1  0  0  0  0
 18 40  1  0  0  0  0
  6 40  1  0  0  0  0
 40 41  1  0  0  0  0
 40 42  1  0  0  0  0
 12 43  1  0  0  0  0
 11 44  1  0  0  0  0
  5 45  1  0  0  0  0
  5 46  1  0  0  0  0
  4 47  2  0  0  0  0
 47 48  1  0  0  0  0
 47 49  1  0  0  0  0
  2 49  1  0  0  0  0
 49 50  1  0  0  0  0
  1 51  1  0  0  0  0
  1 52  1  0  0  0  0
  1 53  1  0  0  0  0
M  END
> <Potency>
0.306662404548456

> <pIC50>
6.513339463332638

> <Outcome>
Active

> <is_active>
1

$$$$

  Mrv1921 08232120312D          

 36 38  0  0  0  0            999 V2000
   -0.1712   -0.6979    0.0000 C   0  0  0  0  0  0  0  0  0  0  0  0
    0.6538   -0.6979    0.0000 C   0  0  0  0  0  0  0  0  0  0  0  0
    1.1387   -0.0305    0.0000 C   0  0  0  0  0  0  0  0  0  0  0  0
    0.8838    0.7541    0.0000 C   0  0  0  0  0  0  0  0  0  0  0  0
    0.0768    0.9256    0.0000 O   0  0  0  0  0  0  0  0  0  0  0  0
    1.4358    1.3672    0.0000 C   0  0  0  0  0  0  0  0  0  0  0  0
    1.1809    2.1518    0.0000 Cl  0  0  0  0  0  0  0  0  0  0  0  0
    2.0800    0.8518    0.0000 H   0  0  0  0  0  0  0  0  0  0  0  0
    2.2339    1.5761    0.0000 H   0  0  0  0  0  0  0  0  0  0  0  0
    1.9233   -0.2854    0.0000 C   0  0  0  0  0  0  0  0  0  0  0  0
    2.6378    0.1271    0.0000 C   0  0  0  0  0  0  0  0  0  0  0  0
    3.3523   -0.2854    0.0000 C   0  0  0  0  0  0  0  0  0  0  0  0
    3.3523   -1.1104    0.0000 C   0  0  0  0  0  0  0  0  0  0  0  0
    2.6378   -1.5229    0.0000 C   0  0  0  0  0  0  0  0  0  0  0  0
    2.6378   -2.3479    0.0000 H   0  0  0  0  0  0  0  0  0  0  0  0
    1.9233   -1.1104    0.0000 N   0  0  0  0  0  0  0  0  0  0  0  0
    1.1387   -1.3654    0.0000 C   0  0  0  0  0  0  0  0  0  0  0  0
    0.8838   -2.1500    0.0000 C   0  0  0  0  0  0  0  0  0  0  0  0
    1.4358   -2.7631    0.0000 O   0  0  0  0  0  0  0  0  0  0  0  0
    0.0768   -2.3215    0.0000 C   0  0  0  0  0  0  0  0  0  0  0  0
   -0.1781   -3.1062    0.0000 C   0  0  0  0  0  0  0  0  0  0  0  0
    0.3739   -3.7192    0.0000 H   0  0  0  0  0  0  0  0  0  0  0  0
   -0.9851   -3.2777    0.0000 C   0  0  0  0  0  0  0  0  0  0  0  0
   -1.2400   -4.0623    0.0000 H   0  0  0  0  0  0  0  0  0  0  0  0
   -1.5371   -2.6646    0.0000 C   0  0  0  0  0  0  0  0  0  0  0  0
   -2.3441   -2.8361    0.0000 F   0  0  0  0  0  0  0  0  0  0  0  0
   -1.2822   -1.8800    0.0000 C   0  0  0  0  0  0  0  0  0  0  0  0
   -1.8342   -1.2669    0.0000 H   0  0  0  0  0  0  0  0  0  0  0  0
   -0.4752   -1.7084    0.0000 C   0  0  0  0  0  0  0  0  0  0  0  0
   -0.7802   -0.9419    0.0000 H   0  0  0  0  0  0  0  0  0  0  0  0
    4.0668   -1.5229    0.0000 H   0  0  0  0  0  0  0  0  0  0  0  0
    4.0668    0.1271    0.0000 H   0  0  0  0  0  0  0  0  0  0  0  0
    3.1813    0.7477    0.0000 H   0  0  0  0  0  0  0  0  0  0  0  0
   -0.1712    0.1271    0.0000 H   0  0  0  0  0  0  0  0  0  0  0  0
   -0.9962   -0.6979    0.0000 H   0  0  0  0  0  0  0  0  0  0  0  0
   -0.1712   -1.5229    0.0000 H   0  0  0  0  0  0  0  0  0  0  0  0
  1  2  1  0  0  0  0
  2  3  1  0  0  0  0
  3  4  1  0  0  0  0
  4  5  2  0  0  0  0
  4  6  1  0  0  0  0
  6  7  1  0  0  0  0
  6  8  1  0  0  0  0
  6  9  1  0  0  0  0
  3 10  2  0  0  0  0
 10 11  1  0  0  0  0
 11 12  2  0  0  0  0
 12 13  1  0  0  0  0
 13 14  2  0  0  0  0
 14 15  1  0  0  0  0
 14 16  1  0  0  0  0
 10 16  1  0  0  0  0
 16 17  1  0  0  0  0
  2 17  2  0  0  0  0
 17 18  1  0  0  0  0
 18 19  2  0  0  0  0
 18 20  1  0  0  0  0
 20 21  2  0  0  0  0
 21 22  1  0  0  0  0
 21 23  1  0  0  0  0
 23 24  1  0  0  0  0
 23 25  2  0  0  0  0
 25 26  1  0  0  0  0
 25 27  1  0  0  0  0
 27 28  1  0  0  0  0
 27 29  2  0  0  0  0
 20 29  1  0  0  0  0
 29 30  1  0  0  0  0
 13 31  1  0  0  0  0
 12 32  1  0  0  0  0
 11 33  1  0  0  0  0
  1 34  1  0  0  0  0
  1 35  1  0  0  0  0
  1 36  1  0  0  0  0
M  END
> <Potency>
0.719126347692144

> <pIC50>
6.143194799068008

> <Outcome>
Active

> <is_active>
1

$$$$

  Mrv1921 08232120312D          

 41 43  0  0  0  0            999 V2000
   -0.0000    7.1786    0.0000 C   0  0  0  0  0  0  0  0  0  0  0  0
    0.7145    6.7661    0.0000 O   0  0  0  0  0  0  0  0  0  0  0  0
    0.7145    5.9411    0.0000 C   0  0  0  0  0  0  0  0  0  0  0  0
    1.4289    5.5286    0.0000 C   0  0  0  0  0  0  0  0  0  0  0  0
    2.1434    5.9411    0.0000 H   0  0  0  0  0  0  0  0  0  0  0  0
    1.4289    4.7036    0.0000 C   0  0  0  0  0  0  0  0  0  0  0  0
    2.1434    4.2911    0.0000 H   0  0  0  0  0  0  0  0  0  0  0  0
    0.7145    4.2911    0.0000 C   0  0  0  0  0  0  0  0  0  0  0  0
    0.7145    3.4661    0.0000 C   0  0  0  0  0  0  0  0  0  0  0  0
    1.3819    2.9812    0.0000 C   0  0  0  0  0  0  0  0  0  0  0  0
    2.1944    2.8379    0.0000 H   0  0  0  0  0  0  0  0  0  0  0  0
    1.9550    3.5746    0.0000 H   0  0  0  0  0  0  0  0  0  0  0  0
    1.1270    2.1965    0.0000 C   0  0  0  0  0  0  0  0  0  0  0  0
    1.6119    1.5291    0.0000 C   0  0  0  0  0  0  0  0  0  0  0  0
    2.4369    1.5291    0.0000 C   0  0  0  0  0  0  0  0  0  0  0  0
    2.9218    2.1965    0.0000 H   0  0  0  0  0  0  0  0  0  0  0  0
    2.6918    0.7445    0.0000 C   0  0  0  0  0  0  0  0  0  0  0  0
    3.4765    0.4895    0.0000 H   0  0  0  0  0  0  0  0  0  0  0  0
    2.0244    0.2595    0.0000 C   0  0  0  0  0  0  0  0  0  0  0  0
    2.0244   -0.5655    0.0000 H   0  0  0  0  0  0  0  0  0  0  0  0
    1.3570    0.7445    0.0000 S   0  0  0  0  0  0  0  0  0  0  0  0
    0.3020    2.1965    0.0000 N   0  0  0  0  0  0  0  0  0  0  0  0
    0.0470    2.9812    0.0000 N   0  0  0  0  0  0  0  0  0  0  0  0
   -0.7376    3.2361    0.0000 C   0  0  0  0  0  0  0  0  0  0  0  0
   -0.9091    4.0431    0.0000 O   0  0  0  0  0  0  0  0  0  0  0  0
   -1.3507    2.6841    0.0000 C   0  0  0  0  0  0  0  0  0  0  0  0
   -2.1353    2.9390    0.0000 Cl  0  0  0  0  0  0  0  0  0  0  0  0
   -1.5596    1.8859    0.0000 H   0  0  0  0  0  0  0  0  0  0  0  0
   -0.8352    2.0399    0.0000 H   0  0  0  0  0  0  0  0  0  0  0  0
   -0.0206    3.8406    0.0000 H   0  0  0  0  0  0  0  0  0  0  0  0
    0.0000    4.7036    0.0000 C   0  0  0  0  0  0  0  0  0  0  0  0
   -0.8249    4.7134    0.0000 H   0  0  0  0  0  0  0  0  0  0  0  0
   -0.0000    5.5286    0.0000 C   0  0  0  0  0  0  0  0  0  0  0  0
   -0.7145    5.9411    0.0000 O   0  0  0  0  0  0  0  0  0  0  0  0
   -0.7145    6.7661    0.0000 C   0  0  0  0  0  0  0  0  0  0  0  0
   -1.4897    7.0482    0.0000 H   0  0  0  0  0  0  0  0  0  0  0  0
   -1.4897    6.4839    0.0000 H   0  0  0  0  0  0  0  0  0  0  0  0
   -0.0000    6.3536    0.0000 H   0  0  0  0  0  0  0  0  0  0  0  0
    0.7145    7.5911    0.0000 H   0  0  0  0  0  0  0  0  0  0  0  0
   -0.0000    8.0036    0.0000 H   0  0  0  0  0  0  0  0  0  0  0  0
   -0.7145    7.5911    0.0000 H   0  0  0  0  0  0  0  0  0  0  0  0
  1  2  1  0  0  0  0
  2  3  1  0  0  0  0
  3  4  2  0  0  0  0
  4  5  1  0  0  0  0
  4  6  1  0  0  0  0
  6  7  1  0  0  0  0
  6  8  2  0  0  0  0
  8  9  1  0  0  0  0
  9 10  1  0  0  0  0
 10 11  1  0  0  0  0
 10 12  1  0  0  0  0
 10 13  1  0  0  0  0
 13 14  1  0  0  0  0
 14 15  2  0  0  0  0
 15 16  1  0  0  0  0
 15 17  1  0  0  0  0
 17 18  1  0  0  0  0
 17 19  2  0  0  0  0
 19 20  1  0  0  0  0
 19 21  1  0  0  0  0
 14 21  1  0  0  0  0
 13 22  2  0  0  0  0
 22 23  1  0  0  0  0
  9 23  1  0  0  0  0
 23 24  1  0  0  0  0
 24 25  2  0  0  0  0
 24 26  1  0  0  0  0
 26 27  1  0  0  0  0
 26 28  1  0  0  0  0
 26 29  1  0  0  0  0
  9 30  1  0  0  0  0
  8 31  1  0  0  0  0
 31 32  1  0  0  0  0
 31 33  2  0  0  0  0
  3 33  1  0  0  0  0
 33 34  1  0  0  0  0
 34 35  1  0  0  0  0
 35 36  1  0  0  0  0
 35 37  1  0  0  0  0
 35 38  1  0  0  0  0
  1 39  1  0  0  0  0
  1 40  1  0  0  0  0
  1 41  1  0  0  0  0
M  END
> <Potency>
1.87118266616579

> <pIC50>
5.727883814298205

> <Outcome>
Active

> <is_active>
1

$$$$

  Mrv1921 08232120312D          

 47 50  0  0  0  0            999 V2000
   -1.6373    0.2893    0.0000 O   0  0  0  0  0  0  0  0  0  0  0  0
   -0.8123    0.2893    0.0000 S   0  0  0  0  0  0  0  0  0  0  0  0
    0.0127    0.2893    0.0000 O   0  0  0  0  0  0  0  0  0  0  0  0
   -0.8123    1.1143    0.0000 C   0  0  0  0  0  0  0  0  0  0  0  0
   -1.5268    1.5268    0.0000 C   0  0  0  0  0  0  0  0  0  0  0  0
   -2.2413    1.1143    0.0000 C   0  0  0  0  0  0  0  0  0  0  0  0
   -2.2413    0.2893    0.0000 H   0  0  0  0  0  0  0  0  0  0  0  0
   -2.9557    1.5268    0.0000 C   0  0  0  0  0  0  0  0  0  0  0  0
   -3.6702    1.1143    0.0000 H   0  0  0  0  0  0  0  0  0  0  0  0
   -2.9557    2.3518    0.0000 C   0  0  0  0  0  0  0  0  0  0  0  0
   -3.6702    2.7643    0.0000 H   0  0  0  0  0  0  0  0  0  0  0  0
   -2.2413    2.7643    0.0000 C   0  0  0  0  0  0  0  0  0  0  0  0
   -2.2413    3.5893    0.0000 H   0  0  0  0  0  0  0  0  0  0  0  0
   -1.5268    2.3518    0.0000 C   0  0  0  0  0  0  0  0  0  0  0  0
   -0.8123    2.7643    0.0000 F   0  0  0  0  0  0  0  0  0  0  0  0
    0.0113    1.1623    0.0000 H   0  0  0  0  0  0  0  0  0  0  0  0
   -0.3590    1.8036    0.0000 H   0  0  0  0  0  0  0  0  0  0  0  0
   -0.8123   -0.5357    0.0000 C   0  0  0  0  0  0  0  0  0  0  0  0
   -0.1449   -1.0206    0.0000 O   0  0  0  0  0  0  0  0  0  0  0  0
   -0.3998   -1.8053    0.0000 C   0  0  0  0  0  0  0  0  0  0  0  0
    0.0851   -2.4727    0.0000 C   0  0  0  0  0  0  0  0  0  0  0  0
    0.9056   -2.3865    0.0000 C   0  0  0  0  0  0  0  0  0  0  0  0
    1.2411   -1.6328    0.0000 H   0  0  0  0  0  0  0  0  0  0  0  0
    1.3905   -3.0539    0.0000 C   0  0  0  0  0  0  0  0  0  0  0  0
    2.2110   -2.9677    0.0000 H   0  0  0  0  0  0  0  0  0  0  0  0
    1.0550   -3.8076    0.0000 C   0  0  0  0  0  0  0  0  0  0  0  0
    1.5399   -4.4750    0.0000 F   0  0  0  0  0  0  0  0  0  0  0  0
    0.2345   -3.8938    0.0000 C   0  0  0  0  0  0  0  0  0  0  0  0
   -0.1011   -4.6475    0.0000 H   0  0  0  0  0  0  0  0  0  0  0  0
   -0.2505   -3.2264    0.0000 C   0  0  0  0  0  0  0  0  0  0  0  0
   -1.0709   -3.3126    0.0000 H   0  0  0  0  0  0  0  0  0  0  0  0
   -1.2248   -1.8053    0.0000 N   0  0  0  0  0  0  0  0  0  0  0  0
   -1.4798   -1.0206    0.0000 C   0  0  0  0  0  0  0  0  0  0  0  0
   -2.2644   -0.7657    0.0000 S   0  0  0  0  0  0  0  0  0  0  0  0
   -3.0490   -0.5108    0.0000 O   0  0  0  0  0  0  0  0  0  0  0  0
   -2.0094    0.0189    0.0000 O   0  0  0  0  0  0  0  0  0  0  0  0
   -2.5193   -1.5503    0.0000 C   0  0  0  0  0  0  0  0  0  0  0  0
   -1.9673   -2.1634    0.0000 C   0  0  0  0  0  0  0  0  0  0  0  0
   -1.3458   -2.7060    0.0000 H   0  0  0  0  0  0  0  0  0  0  0  0
   -2.2222   -2.9480    0.0000 C   0  0  0  0  0  0  0  0  0  0  0  0
   -2.0266   -3.7495    0.0000 H   0  0  0  0  0  0  0  0  0  0  0  0
   -3.0292   -3.1196    0.0000 C   0  0  0  0  0  0  0  0  0  0  0  0
   -3.2841   -3.9042    0.0000 H   0  0  0  0  0  0  0  0  0  0  0  0
   -3.5812   -2.5065    0.0000 C   0  0  0  0  0  0  0  0  0  0  0  0
   -4.3882   -2.6780    0.0000 H   0  0  0  0  0  0  0  0  0  0  0  0
   -3.3263   -1.7218    0.0000 C   0  0  0  0  0  0  0  0  0  0  0  0
   -3.8783   -1.1088    0.0000 H   0  0  0  0  0  0  0  0  0  0  0  0
  1  2  2  0  0  0  0
  2  3  2  0  0  0  0
  2  4  1  0  0  0  0
  4  5  1  0  0  0  0
  5  6  2  0  0  0  0
  6  7  1  0  0  0  0
  6  8  1  0  0  0  0
  8  9  1  0  0  0  0
  8 10  2  0  0  0  0
 10 11  1  0  0  0  0
 10 12  1  0  0  0  0
 12 13  1  0  0  0  0
 12 14  2  0  0  0  0
  5 14  1  0  0  0  0
 14 15  1  0  0  0  0
  4 16  1  0  0  0  0
  4 17  1  0  0  0  0
  2 18  1  0  0  0  0
 18 19  1  0  0  0  0
 19 20  1  0  0  0  0
 20 21  1  0  0  0  0
 21 22  2  0  0  0  0
 22 23  1  0  0  0  0
 22 24  1  0  0  0  0
 24 25  1  0  0  0  0
 24 26  2  0  0  0  0
 26 27  1  0  0  0  0
 26 28  1  0  0  0  0
 28 29  1  0  0  0  0
 28 30  2  0  0  0  0
 21 30  1  0  0  0  0
 30 31  1  0  0  0  0
 20 32  2  0  0  0  0
 32 33  1  0  0  0  0
 18 33  2  0  0  0  0
 33 34  1  0  0  0  0
 34 35  2  0  0  0  0
 34 36  2  0  0  0  0
 34 37  1  0  0  0  0
 37 38  2  0  0  0  0
 38 39  1  0  0  0  0
 38 40  1  0  0  0  0
 40 41  1  0  0  0  0
 40 42  2  0  0  0  0
 42 43  1  0  0  0  0
 42 44  1  0  0  0  0
 44 45  1  0  0  0  0
 44 46  2  0  0  0  0
 37 46  1  0  0  0  0
 46 47  1  0  0  0  0
M  END
> <Potency>
0.397483464596546

> <pIC50>
6.400680933381962

> <Outcome>
Active

> <is_active>
1

$$$$

  Mrv1921 08232120312D          

 37 40  0  0  0  0            999 V2000
    1.8269    2.2925    0.0000 O   0  0  0  0  0  0  0  0  0  0  0  0
    2.6115    2.5474    0.0000 C   0  0  0  0  0  0  0  0  0  0  0  0
    2.8664    3.3320    0.0000 N   0  0  0  0  0  0  0  0  0  0  0  0
    2.3815    3.9995    0.0000 C   0  0  0  0  0  0  0  0  0  0  0  0
    2.7171    4.7532    0.0000 C   0  0  0  0  0  0  0  0  0  0  0  0
    2.2321    5.4206    0.0000 C   0  0  0  0  0  0  0  0  0  0  0  0
    1.4117    5.3344    0.0000 H   0  0  0  0  0  0  0  0  0  0  0  0
    2.5677    6.1743    0.0000 C   0  0  0  0  0  0  0  0  0  0  0  0
    2.0828    6.8417    0.0000 H   0  0  0  0  0  0  0  0  0  0  0  0
    3.3882    6.2605    0.0000 C   0  0  0  0  0  0  0  0  0  0  0  0
    3.7237    7.0142    0.0000 H   0  0  0  0  0  0  0  0  0  0  0  0
    3.8731    5.5931    0.0000 C   0  0  0  0  0  0  0  0  0  0  0  0
    4.6936    5.6793    0.0000 Cl  0  0  0  0  0  0  0  0  0  0  0  0
    3.5375    4.8394    0.0000 C   0  0  0  0  0  0  0  0  0  0  0  0
    4.0225    4.1720    0.0000 H   0  0  0  0  0  0  0  0  0  0  0  0
    1.6096    4.2907    0.0000 H   0  0  0  0  0  0  0  0  0  0  0  0
    1.6870    3.5542    0.0000 H   0  0  0  0  0  0  0  0  0  0  0  0
    3.6914    3.3320    0.0000 C   0  0  0  0  0  0  0  0  0  0  0  0
    4.5160    3.3068    0.0000 H   0  0  0  0  0  0  0  0  0  0  0  0
    3.2272    4.0140    0.0000 H   0  0  0  0  0  0  0  0  0  0  0  0
    3.9464    2.5474    0.0000 C   0  0  0  0  0  0  0  0  0  0  0  0
    4.2642    1.7861    0.0000 H   0  0  0  0  0  0  0  0  0  0  0  0
    4.7027    2.2180    0.0000 H   0  0  0  0  0  0  0  0  0  0  0  0
    3.2789    2.0625    0.0000 N   0  0  0  0  0  0  0  0  0  0  0  0
    3.2789    1.2375    0.0000 C   0  0  0  0  0  0  0  0  0  0  0  0
    3.9934    0.8250    0.0000 N   0  0  0  0  0  0  0  0  0  0  0  0
    3.9934    0.0000    0.0000 C   0  0  0  0  0  0  0  0  0  0  0  0
    4.7079   -0.4125    0.0000 H   0  0  0  0  0  0  0  0  0  0  0  0
    3.2789   -0.4125    0.0000 C   0  0  0  0  0  0  0  0  0  0  0  0
    3.2789   -1.2375    0.0000 H   0  0  0  0  0  0  0  0  0  0  0  0
    2.5645    0.0000    0.0000 C   0  0  0  0  0  0  0  0  0  0  0  0
    1.7798   -0.2549    0.0000 N   0  0  0  0  0  0  0  0  0  0  0  0
    1.2949    0.4125    0.0000 N   0  0  0  0  0  0  0  0  0  0  0  0
    1.7798    1.0799    0.0000 C   0  0  0  0  0  0  0  0  0  0  0  0
    1.5249    1.8646    0.0000 H   0  0  0  0  0  0  0  0  0  0  0  0
    2.5645    0.8250    0.0000 C   0  0  0  0  0  0  0  0  0  0  0  0
    1.5249   -1.0396    0.0000 H   0  0  0  0  0  0  0  0  0  0  0  0
  1  2  2  0  0  0  0
  2  3  1  0  0  0  0
  3  4  1  0  0  0  0
  4  5  1  0  0  0  0
  5  6  2  0  0  0  0
  6  7  1  0  0  0  0
  6  8  1  0  0  0  0
  8  9  1  0  0  0  0
  8 10  2  0  0  0  0
 10 11  1  0  0  0  0
 10 12  1  0  0  0  0
 12 13  1  0  0  0  0
 12 14  2  0  0  0  0
  5 14  1  0  0  0  0
 14 15  1  0  0  0  0
  4 16  1  0  0  0  0
  4 17  1  0  0  0  0
  3 18  1  0  0  0  0
 18 19  1  0  0  0  0
 18 20  1  0  0  0  0
 18 21  1  0  0  0  0
 21 22  1  0  0  0  0
 21 23  1  0  0  0  0
 21 24  1  0  0  0  0
  2 24  1  0  0  0  0
 24 25  1  0  0  0  0
 25 26  1  0  0  0  0
 26 27  2  0  0  0  0
 27 28  1  0  0  0  0
 27 29  1  0  0  0  0
 29 30  1  0  0  0  0
 29 31  2  0  0  0  0
 31 32  1  0  0  0  0
 32 33  1  0  0  0  0
 33 34  2  0  0  0  0
 34 35  1  0  0  0  0
 34 36  1  0  0  0  0
 25 36  2  0  0  0  0
 31 36  1  0  0  0  0
 32 37  1  0  0  0  0
M  END
> <Potency>
4.55767419091193

> <pIC50>
5.341256723944256

> <Outcome>
Active

> <is_active>
1

$$$$

  Mrv1921 08232120312D          

 53 57  0  0  0  0            999 V2000
    3.0408   -8.1245    0.0000 C   0  0  0  0  0  0  0  0  0  0  0  0
    2.5559   -7.4570    0.0000 N   0  0  0  0  0  0  0  0  0  0  0  0
    1.7309   -7.4570    0.0000 C   0  0  0  0  0  0  0  0  0  0  0  0
    1.2460   -8.1245    0.0000 H   0  0  0  0  0  0  0  0  0  0  0  0
    1.4760   -6.6724    0.0000 C   0  0  0  0  0  0  0  0  0  0  0  0
    0.6914   -6.4175    0.0000 H   0  0  0  0  0  0  0  0  0  0  0  0
    2.1434   -6.1875    0.0000 C   0  0  0  0  0  0  0  0  0  0  0  0
    2.1434   -5.3625    0.0000 C   0  0  0  0  0  0  0  0  0  0  0  0
    1.4289   -4.9500    0.0000 N   0  0  0  0  0  0  0  0  0  0  0  0
    0.7145   -5.3625    0.0000 C   0  0  0  0  0  0  0  0  0  0  0  0
    0.3442   -6.0997    0.0000 H   0  0  0  0  0  0  0  0  0  0  0  0
    1.0847   -6.0997    0.0000 H   0  0  0  0  0  0  0  0  0  0  0  0
    0.0000   -4.9500    0.0000 C   0  0  0  0  0  0  0  0  0  0  0  0
   -0.7145   -5.3625    0.0000 C   0  0  0  0  0  0  0  0  0  0  0  0
   -1.4289   -4.9500    0.0000 C   0  0  0  0  0  0  0  0  0  0  0  0
   -1.4289   -4.1250    0.0000 C   0  0  0  0  0  0  0  0  0  0  0  0
   -2.1434   -3.7125    0.0000 Cl  0  0  0  0  0  0  0  0  0  0  0  0
   -0.7145   -3.7125    0.0000 C   0  0  0  0  0  0  0  0  0  0  0  0
   -0.7145   -2.8875    0.0000 H   0  0  0  0  0  0  0  0  0  0  0  0
    0.0000   -4.1250    0.0000 C   0  0  0  0  0  0  0  0  0  0  0  0
    0.7145   -3.7125    0.0000 C   0  0  0  0  0  0  0  0  0  0  0  0
    0.7145   -2.8875    0.0000 C   0  0  0  0  0  0  0  0  0  0  0  0
    0.0000   -2.4750    0.0000 O   0  0  0  0  0  0  0  0  0  0  0  0
    1.4289   -2.4750    0.0000 N   0  0  0  0  0  0  0  0  0  0  0  0
    1.4289   -1.6500    0.0000 C   0  0  0  0  0  0  0  0  0  0  0  0
    0.7145   -1.2375    0.0000 C   0  0  0  0  0  0  0  0  0  0  0  0
    0.0000   -1.6500    0.0000 H   0  0  0  0  0  0  0  0  0  0  0  0
    0.7145   -0.4125    0.0000 N   0  0  0  0  0  0  0  0  0  0  0  0
    1.4289    0.0000    0.0000 C   0  0  0  0  0  0  0  0  0  0  0  0
    1.4289    0.8250    0.0000 H   0  0  0  0  0  0  0  0  0  0  0  0
    2.1434   -0.4125    0.0000 C   0  0  0  0  0  0  0  0  0  0  0  0
    2.8579    0.0000    0.0000 C   0  0  0  0  0  0  0  0  0  0  0  0
    3.5724   -0.4125    0.0000 C   0  0  0  0  0  0  0  0  0  0  0  0
    3.5724   -1.2375    0.0000 C   0  0  0  0  0  0  0  0  0  0  0  0
    4.2868   -1.6500    0.0000 F   0  0  0  0  0  0  0  0  0  0  0  0
    2.8579   -1.6500    0.0000 C   0  0  0  0  0  0  0  0  0  0  0  0
    2.8579   -2.4750    0.0000 H   0  0  0  0  0  0  0  0  0  0  0  0
    2.1434   -1.2375    0.0000 C   0  0  0  0  0  0  0  0  0  0  0  0
    4.2868   -0.0000    0.0000 H   0  0  0  0  0  0  0  0  0  0  0  0
    2.8579    0.8250    0.0000 H   0  0  0  0  0  0  0  0  0  0  0  0
    2.2539   -2.4750    0.0000 H   0  0  0  0  0  0  0  0  0  0  0  0
    1.4289   -3.3000    0.0000 H   0  0  0  0  0  0  0  0  0  0  0  0
    1.4289   -4.1250    0.0000 C   0  0  0  0  0  0  0  0  0  0  0  0
    2.2042   -4.4072    0.0000 H   0  0  0  0  0  0  0  0  0  0  0  0
    2.2042   -3.8428    0.0000 H   0  0  0  0  0  0  0  0  0  0  0  0
   -2.1434   -5.3625    0.0000 H   0  0  0  0  0  0  0  0  0  0  0  0
   -0.7145   -6.1875    0.0000 H   0  0  0  0  0  0  0  0  0  0  0  0
    2.9670   -5.3145    0.0000 H   0  0  0  0  0  0  0  0  0  0  0  0
    2.5968   -4.6732    0.0000 H   0  0  0  0  0  0  0  0  0  0  0  0
    2.8109   -6.6724    0.0000 N   0  0  0  0  0  0  0  0  0  0  0  0
    2.3734   -8.6094    0.0000 H   0  0  0  0  0  0  0  0  0  0  0  0
    3.5258   -8.7919    0.0000 H   0  0  0  0  0  0  0  0  0  0  0  0
    3.7083   -7.6396    0.0000 H   0  0  0  0  0  0  0  0  0  0  0  0
  1  2  1  0  0  0  0
  2  3  1  0  0  0  0
  3  4  1  0  0  0  0
  3  5  2  0  0  0  0
  5  6  1  0  0  0  0
  5  7  1  0  0  0  0
  7  8  1  0  0  0  0
  8  9  1  0  0  0  0
  9 10  1  0  0  0  0
 10 11  1  0  0  0  0
 10 12  1  0  0  0  0
 10 13  1  0  0  0  0
 13 14  2  0  0  0  0
 14 15  1  0  0  0  0
 15 16  2  0  0  0  0
 16 17  1  0  0  0  0
 16 18  1  0  0  0  0
 18 19  1  0  0  0  0
 18 20  2  0  0  0  0
 13 20  1  0  0  0  0
 20 21  1  0  0  0  0
 21 22  1  0  0  0  0
 22 23  2  0  0  0  0
 22 24  1  0  0  0  0
 24 25  1  0  0  0  0
 25 26  2  0  0  0  0
 26 27  1  0  0  0  0
 26 28  1  0  0  0  0
 28 29  2  0  0  0  0
 29 30  1  0  0  0  0
 29 31  1  0  0  0  0
 31 32  2  0  0  0  0
 32 33  1  0  0  0  0
 33 34  2  0  0  0  0
 34 35  1  0  0  0  0
 34 36  1  0  0  0  0
 36 37  1  0  0  0  0
 36 38  2  0  0  0  0
 25 38  1  0  0  0  0
 31 38  1  0  0  0  0
 33 39  1  0  0  0  0
 32 40  1  0  0  0  0
 24 41  1  0  0  0  0
 21 42  1  0  0  0  0
 21 43  1  0  0  0  0
  9 43  1  0  0  0  0
 43 44  1  0  0  0  0
 43 45  1  0  0  0  0
 15 46  1  0  0  0  0
 14 47  1  0  0  0  0
  8 48  1  0  0  0  0
  8 49  1  0  0  0  0
  7 50  2  0  0  0  0
  2 50  1  0  0  0  0
  1 51  1  0  0  0  0
  1 52  1  0  0  0  0
  1 53  1  0  0  0  0
M  END
> <Potency>
1.35010001793249

> <pIC50>
5.869634056966344

> <Outcome>
Active

> <is_active>
1

$$$$

  Mrv1921 08232120312D          

 52 56  0  0  0  0            999 V2000
    3.0408   -8.1245    0.0000 C   0  0  0  0  0  0  0  0  0  0  0  0
    2.5559   -7.4570    0.0000 C   0  0  0  0  0  0  0  0  0  0  0  0
    1.7309   -7.4570    0.0000 N   0  0  0  0  0  0  0  0  0  0  0  0
    1.4760   -6.6724    0.0000 N   0  0  0  0  0  0  0  0  0  0  0  0
    0.6914   -6.4175    0.0000 H   0  0  0  0  0  0  0  0  0  0  0  0
    2.1434   -6.1875    0.0000 C   0  0  0  0  0  0  0  0  0  0  0  0
    2.1434   -5.3625    0.0000 C   0  0  0  0  0  0  0  0  0  0  0  0
    1.4289   -4.9500    0.0000 N   0  0  0  0  0  0  0  0  0  0  0  0
    0.7145   -5.3625    0.0000 C   0  0  0  0  0  0  0  0  0  0  0  0
    0.3442   -6.0997    0.0000 H   0  0  0  0  0  0  0  0  0  0  0  0
    1.0847   -6.0997    0.0000 H   0  0  0  0  0  0  0  0  0  0  0  0
    0.0000   -4.9500    0.0000 C   0  0  0  0  0  0  0  0  0  0  0  0
   -0.7145   -5.3625    0.0000 C   0  0  0  0  0  0  0  0  0  0  0  0
   -1.4289   -4.9500    0.0000 C   0  0  0  0  0  0  0  0  0  0  0  0
   -1.4289   -4.1250    0.0000 C   0  0  0  0  0  0  0  0  0  0  0  0
   -2.1434   -3.7125    0.0000 Cl  0  0  0  0  0  0  0  0  0  0  0  0
   -0.7145   -3.7125    0.0000 C   0  0  0  0  0  0  0  0  0  0  0  0
   -0.7145   -2.8875    0.0000 H   0  0  0  0  0  0  0  0  0  0  0  0
    0.0000   -4.1250    0.0000 C   0  0  0  0  0  0  0  0  0  0  0  0
    0.7145   -3.7125    0.0000 C   0  0  0  0  0  0  0  0  0  0  0  0
    0.7145   -2.8875    0.0000 C   0  0  0  0  0  0  0  0  0  0  0  0
    0.0000   -2.4750    0.0000 O   0  0  0  0  0  0  0  0  0  0  0  0
    1.4289   -2.4750    0.0000 N   0  0  0  0  0  0  0  0  0  0  0  0
    1.4289   -1.6500    0.0000 C   0  0  0  0  0  0  0  0  0  0  0  0
    0.7145   -1.2375    0.0000 C   0  0  0  0  0  0  0  0  0  0  0  0
    0.0000   -1.6500    0.0000 H   0  0  0  0  0  0  0  0  0  0  0  0
    0.7145   -0.4125    0.0000 N   0  0  0  0  0  0  0  0  0  0  0  0
    1.4289    0.0000    0.0000 C   0  0  0  0  0  0  0  0  0  0  0  0
    1.4289    0.8250    0.0000 H   0  0  0  0  0  0  0  0  0  0  0  0
    2.1434   -0.4125    0.0000 C   0  0  0  0  0  0  0  0  0  0  0  0
    2.8579    0.0000    0.0000 C   0  0  0  0  0  0  0  0  0  0  0  0
    3.5724   -0.4125    0.0000 C   0  0  0  0  0  0  0  0  0  0  0  0
    3.5724   -1.2375    0.0000 C   0  0  0  0  0  0  0  0  0  0  0  0
    2.8579   -1.6500    0.0000 C   0  0  0  0  0  0  0  0  0  0  0  0
    2.8579   -2.4750    0.0000 H   0  0  0  0  0  0  0  0  0  0  0  0
    2.1434   -1.2375    0.0000 C   0  0  0  0  0  0  0  0  0  0  0  0
    4.2868   -1.6500    0.0000 H   0  0  0  0  0  0  0  0  0  0  0  0
    4.2868   -0.0000    0.0000 H   0  0  0  0  0  0  0  0  0  0  0  0
    2.8579    0.8250    0.0000 H   0  0  0  0  0  0  0  0  0  0  0  0
    2.2539   -2.4750    0.0000 H   0  0  0  0  0  0  0  0  0  0  0  0
    1.4289   -3.3000    0.0000 H   0  0  0  0  0  0  0  0  0  0  0  0
    1.4289   -4.1250    0.0000 C   0  0  0  0  0  0  0  0  0  0  0  0
    2.2042   -4.4072    0.0000 H   0  0  0  0  0  0  0  0  0  0  0  0
    2.2042   -3.8428    0.0000 H   0  0  0  0  0  0  0  0  0  0  0  0
   -2.1434   -5.3625    0.0000 H   0  0  0  0  0  0  0  0  0  0  0  0
   -0.7145   -6.1875    0.0000 H   0  0  0  0  0  0  0  0  0  0  0  0
    2.9670   -5.3145    0.0000 H   0  0  0  0  0  0  0  0  0  0  0  0
    2.5968   -4.6732    0.0000 H   0  0  0  0  0  0  0  0  0  0  0  0
    2.8109   -6.6724    0.0000 N   0  0  0  0  0  0  0  0  0  0  0  0
    2.3734   -8.6094    0.0000 H   0  0  0  0  0  0  0  0  0  0  0  0
    3.5258   -8.7919    0.0000 H   0  0  0  0  0  0  0  0  0  0  0  0
    3.7083   -7.6396    0.0000 H   0  0  0  0  0  0  0  0  0  0  0  0
  1  2  1  0  0  0  0
  2  3  2  0  0  0  0
  3  4  1  0  0  0  0
  4  5  1  0  0  0  0
  4  6  1  0  0  0  0
  6  7  1  0  0  0  0
  7  8  1  0  0  0  0
  8  9  1  0  0  0  0
  9 10  1  0  0  0  0
  9 11  1  0  0  0  0
  9 12  1  0  0  0  0
 12 13  2  0  0  0  0
 13 14  1  0  0  0  0
 14 15  2  0  0  0  0
 15 16  1  0  0  0  0
 15 17  1  0  0  0  0
 17 18  1  0  0  0  0
 17 19  2  0  0  0  0
 12 19  1  0  0  0  0
 19 20  1  0  0  0  0
 20 21  1  0  0  0  0
 21 22  2  0  0  0  0
 21 23  1  0  0  0  0
 23 24  1  0  0  0  0
 24 25  2  0  0  0  0
 25 26  1  0  0  0  0
 25 27  1  0  0  0  0
 27 28  2  0  0  0  0
 28 29  1  0  0  0  0
 28 30  1  0  0  0  0
 30 31  2  0  0  0  0
 31 32  1  0  0  0  0
 32 33  2  0  0  0  0
 33 34  1  0  0  0  0
 34 35  1  0  0  0  0
 34 36  2  0  0  0  0
 24 36  1  0  0  0  0
 30 36  1  0  0  0  0
 33 37  1  0  0  0  0
 32 38  1  0  0  0  0
 31 39  1  0  0  0  0
 23 40  1  0  0  0  0
 20 41  1  0  0  0  0
 20 42  1  0  0  0  0
  8 42  1  0  0  0  0
 42 43  1  0  0  0  0
 42 44  1  0  0  0  0
 14 45  1  0  0  0  0
 13 46  1  0  0  0  0
  7 47  1  0  0  0  0
  7 48  1  0  0  0  0
  6 49  2  0  0  0  0
  2 49  1  0  0  0  0
  1 50  1  0  0  0  0
  1 51  1  0  0  0  0
  1 52  1  0  0  0  0
M  END
> <Potency>
0.750152738937616

> <pIC50>
6.12485030070936

> <Outcome>
Active

> <is_active>
1

$$$$

  Mrv1921 08232120312D          

 60 64  0  0  0  0            999 V2000
    0.0244   -9.0327    0.0000 C   0  0  0  0  0  0  0  0  0  0  0  0
    0.4369   -8.3182    0.0000 C   0  0  0  0  0  0  0  0  0  0  0  0
    1.2574   -8.2320    0.0000 N   0  0  0  0  0  0  0  0  0  0  0  0
    1.4289   -7.4250    0.0000 C   0  0  0  0  0  0  0  0  0  0  0  0
    0.7145   -7.0125    0.0000 N   0  0  0  0  0  0  0  0  0  0  0  0
    0.7145   -6.1875    0.0000 C   0  0  0  0  0  0  0  0  0  0  0  0
    1.4289   -5.7750    0.0000 C   0  0  0  0  0  0  0  0  0  0  0  0
    1.4289   -4.9500    0.0000 C   0  0  0  0  0  0  0  0  0  0  0  0
    2.1434   -4.5375    0.0000 O   0  0  0  0  0  0  0  0  0  0  0  0
    0.7145   -4.5375    0.0000 N   0  0  0  0  0  0  0  0  0  0  0  0
    0.7145   -3.7125    0.0000 C   0  0  0  0  0  0  0  0  0  0  0  0
    1.5395   -3.7125    0.0000 C   0  0  0  0  0  0  0  0  0  0  0  0
    1.5395   -4.5375    0.0000 H   0  0  0  0  0  0  0  0  0  0  0  0
    2.3645   -3.7125    0.0000 H   0  0  0  0  0  0  0  0  0  0  0  0
    1.5395   -2.8875    0.0000 H   0  0  0  0  0  0  0  0  0  0  0  0
    0.7145   -2.8875    0.0000 C   0  0  0  0  0  0  0  0  0  0  0  0
    0.0000   -2.4750    0.0000 O   0  0  0  0  0  0  0  0  0  0  0  0
    1.4289   -2.4750    0.0000 N   0  0  0  0  0  0  0  0  0  0  0  0
    1.4289   -1.6500    0.0000 C   0  0  0  0  0  0  0  0  0  0  0  0
    0.7145   -1.2375    0.0000 C   0  0  0  0  0  0  0  0  0  0  0  0
    0.0000   -1.6500    0.0000 H   0  0  0  0  0  0  0  0  0  0  0  0
    0.7145   -0.4125    0.0000 N   0  0  0  0  0  0  0  0  0  0  0  0
    1.4289    0.0000    0.0000 C   0  0  0  0  0  0  0  0  0  0  0  0
    1.4289    0.8250    0.0000 H   0  0  0  0  0  0  0  0  0  0  0  0
    2.1434   -0.4125    0.0000 C   0  0  0  0  0  0  0  0  0  0  0  0
    2.8579    0.0000    0.0000 C   0  0  0  0  0  0  0  0  0  0  0  0
    3.5724   -0.4125    0.0000 C   0  0  0  0  0  0  0  0  0  0  0  0
    3.5724   -1.2375    0.0000 C   0  0  0  0  0  0  0  0  0  0  0  0
    2.8579   -1.6500    0.0000 C   0  0  0  0  0  0  0  0  0  0  0  0
    3.3858   -2.2839    0.0000 H   0  0  0  0  0  0  0  0  0  0  0  0
    2.1434   -1.2375    0.0000 C   0  0  0  0  0  0  0  0  0  0  0  0
    4.2868   -1.6500    0.0000 H   0  0  0  0  0  0  0  0  0  0  0  0
    4.2868   -0.0000    0.0000 H   0  0  0  0  0  0  0  0  0  0  0  0
    2.8579    0.8250    0.0000 H   0  0  0  0  0  0  0  0  0  0  0  0
    2.2469   -2.3673    0.0000 H   0  0  0  0  0  0  0  0  0  0  0  0
   -0.1105   -3.7125    0.0000 C   0  0  0  0  0  0  0  0  0  0  0  0
   -0.5230   -4.4270    0.0000 C   0  0  0  0  0  0  0  0  0  0  0  0
   -0.8387   -5.1892    0.0000 H   0  0  0  0  0  0  0  0  0  0  0  0
   -1.3480   -4.4270    0.0000 C   0  0  0  0  0  0  0  0  0  0  0  0
   -2.0486   -4.8626    0.0000 H   0  0  0  0  0  0  0  0  0  0  0  0
   -1.7605   -3.7125    0.0000 C   0  0  0  0  0  0  0  0  0  0  0  0
   -2.5855   -3.7125    0.0000 Cl  0  0  0  0  0  0  0  0  0  0  0  0
   -1.3480   -2.9980    0.0000 C   0  0  0  0  0  0  0  0  0  0  0  0
   -1.7605   -2.2836    0.0000 Cl  0  0  0  0  0  0  0  0  0  0  0  0
   -0.5230   -2.9980    0.0000 C   0  0  0  0  0  0  0  0  0  0  0  0
   -0.8387   -2.2358    0.0000 H   0  0  0  0  0  0  0  0  0  0  0  0
    0.0000   -4.9500    0.0000 H   0  0  0  0  0  0  0  0  0  0  0  0
    2.1434   -6.1875    0.0000 C   0  0  0  0  0  0  0  0  0  0  0  0
    2.1434   -7.0125    0.0000 C   0  0  0  0  0  0  0  0  0  0  0  0
    2.3142   -7.8196    0.0000 H   0  0  0  0  0  0  0  0  0  0  0  0
    2.8028   -7.5084    0.0000 H   0  0  0  0  0  0  0  0  0  0  0  0
    2.9187   -6.4697    0.0000 H   0  0  0  0  0  0  0  0  0  0  0  0
    2.9187   -5.9053    0.0000 H   0  0  0  0  0  0  0  0  0  0  0  0
    2.1434   -5.3625    0.0000 H   0  0  0  0  0  0  0  0  0  0  0  0
    0.2611   -5.4982    0.0000 H   0  0  0  0  0  0  0  0  0  0  0  0
   -0.1091   -6.1395    0.0000 H   0  0  0  0  0  0  0  0  0  0  0  0
    0.1014   -7.5645    0.0000 N   0  0  0  0  0  0  0  0  0  0  0  0
   -0.6900   -8.6202    0.0000 H   0  0  0  0  0  0  0  0  0  0  0  0
   -0.3881   -9.7471    0.0000 H   0  0  0  0  0  0  0  0  0  0  0  0
    0.7389   -9.4452    0.0000 H   0  0  0  0  0  0  0  0  0  0  0  0
  1  2  1  0  0  0  0
  2  3  1  0  0  0  0
  3  4  2  0  0  0  0
  4  5  1  0  0  0  0
  5  6  1  0  0  0  0
  6  7  1  0  0  0  0
  7  8  1  0  0  0  0
  8  9  2  0  0  0  0
  8 10  1  0  0  0  0
 10 11  1  0  0  0  0
 11 12  1  0  0  0  0
 12 13  1  0  0  0  0
 12 14  1  0  0  0  0
 12 15  1  0  0  0  0
 11 16  1  0  0  0  0
 16 17  2  0  0  0  0
 16 18  1  0  0  0  0
 18 19  1  0  0  0  0
 19 20  2  0  0  0  0
 20 21  1  0  0  0  0
 20 22  1  0  0  0  0
 22 23  2  0  0  0  0
 23 24  1  0  0  0  0
 23 25  1  0  0  0  0
 25 26  2  0  0  0  0
 26 27  1  0  0  0  0
 27 28  2  0  0  0  0
 28 29  1  0  0  0  0
 29 30  1  0  0  0  0
 29 31  2  0  0  0  0
 19 31  1  0  0  0  0
 25 31  1  0  0  0  0
 28 32  1  0  0  0  0
 27 33  1  0  0  0  0
 26 34  1  0  0  0  0
 18 35  1  0  0  0  0
 11 36  1  0  0  0  0
 36 37  2  0  0  0  0
 37 38  1  0  0  0  0
 37 39  1  0  0  0  0
 39 40  1  0  0  0  0
 39 41  2  0  0  0  0
 41 42  1  0  0  0  0
 41 43  1  0  0  0  0
 43 44  1  0  0  0  0
 43 45  2  0  0  0  0
 36 45  1  0  0  0  0
 45 46  1  0  0  0  0
 10 47  1  0  0  0  0
  7 48  1  0  0  0  0
 48 49  1  0  0  0  0
  4 49  1  0  0  0  0
 49 50  1  0  0  0  0
 49 51  1  0  0  0  0
 48 52  1  0  0  0  0
 48 53  1  0  0  0  0
  7 54  1  0  0  0  0
  6 55  1  0  0  0  0
  6 56  1  0  0  0  0
  5 57  1  0  0  0  0
  2 57  2  0  0  0  0
  1 58  1  0  0  0  0
  1 59  1  0  0  0  0
  1 60  1  0  0  0  0
M  END
> <Potency>
4.8202652966143

> <pIC50>
5.316929058507009

> <Outcome>
Active

> <is_active>
1

$$$$

  Mrv1921 08232120312D          

 52 56  0  0  0  0            999 V2000
    2.8579   -2.4750    0.0000 O   0  0  0  0  0  0  0  0  0  0  0  0
    2.1434   -2.8875    0.0000 C   0  0  0  0  0  0  0  0  0  0  0  0
    2.1434   -3.7125    0.0000 C   0  0  0  0  0  0  0  0  0  0  0  0
    2.8579   -4.1250    0.0000 C   0  0  0  0  0  0  0  0  0  0  0  0
    3.6815   -4.0770    0.0000 H   0  0  0  0  0  0  0  0  0  0  0  0
    3.3112   -3.4357    0.0000 H   0  0  0  0  0  0  0  0  0  0  0  0
    2.8579   -4.9500    0.0000 C   0  0  0  0  0  0  0  0  0  0  0  0
    3.3112   -5.6393    0.0000 H   0  0  0  0  0  0  0  0  0  0  0  0
    3.6815   -4.9980    0.0000 H   0  0  0  0  0  0  0  0  0  0  0  0
    2.1434   -5.3625    0.0000 O   0  0  0  0  0  0  0  0  0  0  0  0
    1.4289   -4.9500    0.0000 C   0  0  0  0  0  0  0  0  0  0  0  0
    0.7145   -5.3625    0.0000 C   0  0  0  0  0  0  0  0  0  0  0  0
    0.0000   -4.9500    0.0000 C   0  0  0  0  0  0  0  0  0  0  0  0
   -0.7145   -5.3625    0.0000 Cl  0  0  0  0  0  0  0  0  0  0  0  0
    0.0000   -4.1250    0.0000 C   0  0  0  0  0  0  0  0  0  0  0  0
    0.7145   -3.7125    0.0000 C   0  0  0  0  0  0  0  0  0  0  0  0
    0.7145   -4.5375    0.0000 H   0  0  0  0  0  0  0  0  0  0  0  0
    1.4289   -4.1250    0.0000 C   0  0  0  0  0  0  0  0  0  0  0  0
    0.0000   -3.3000    0.0000 H   0  0  0  0  0  0  0  0  0  0  0  0
    0.7145   -6.1875    0.0000 H   0  0  0  0  0  0  0  0  0  0  0  0
    1.4289   -3.3000    0.0000 H   0  0  0  0  0  0  0  0  0  0  0  0
    1.4289   -2.4750    0.0000 N   0  0  0  0  0  0  0  0  0  0  0  0
    0.7145   -2.8875    0.0000 C   0  0  0  0  0  0  0  0  0  0  0  0
    0.0000   -2.4750    0.0000 C   0  0  0  0  0  0  0  0  0  0  0  0
    0.0000   -1.6500    0.0000 C   0  0  0  0  0  0  0  0  0  0  0  0
    0.0000   -0.8250    0.0000 H   0  0  0  0  0  0  0  0  0  0  0  0
   -0.7145   -1.2375    0.0000 N   0  0  0  0  0  0  0  0  0  0  0  0
   -1.1270   -0.5230    0.0000 H   0  0  0  0  0  0  0  0  0  0  0  0
   -1.4289   -1.6500    0.0000 C   0  0  0  0  0  0  0  0  0  0  0  0
   -2.1434   -1.2375    0.0000 O   0  0  0  0  0  0  0  0  0  0  0  0
   -1.4289   -2.4750    0.0000 N   0  0  0  0  0  0  0  0  0  0  0  0
   -2.1434   -2.8875    0.0000 H   0  0  0  0  0  0  0  0  0  0  0  0
   -0.7145   -2.8875    0.0000 C   0  0  0  0  0  0  0  0  0  0  0  0
   -0.7145   -3.7125    0.0000 O   0  0  0  0  0  0  0  0  0  0  0  0
    0.9966   -2.1123    0.0000 H   0  0  0  0  0  0  0  0  0  0  0  0
    0.4323   -2.1123    0.0000 H   0  0  0  0  0  0  0  0  0  0  0  0
    1.4289   -1.6500    0.0000 C   0  0  0  0  0  0  0  0  0  0  0  0
    0.7145   -1.2375    0.0000 C   0  0  0  0  0  0  0  0  0  0  0  0
    1.4289   -0.8250    0.0000 H   0  0  0  0  0  0  0  0  0  0  0  0
    0.7145   -0.4125    0.0000 N   0  0  0  0  0  0  0  0  0  0  0  0
    1.4289    0.0000    0.0000 C   0  0  0  0  0  0  0  0  0  0  0  0
    1.4289    0.8250    0.0000 H   0  0  0  0  0  0  0  0  0  0  0  0
    2.1434   -0.4125    0.0000 C   0  0  0  0  0  0  0  0  0  0  0  0
    2.8579    0.0000    0.0000 C   0  0  0  0  0  0  0  0  0  0  0  0
    3.5724   -0.4125    0.0000 C   0  0  0  0  0  0  0  0  0  0  0  0
    3.5724   -1.2375    0.0000 C   0  0  0  0  0  0  0  0  0  0  0  0
    2.8579   -1.6500    0.0000 C   0  0  0  0  0  0  0  0  0  0  0  0
    2.1434   -2.0625    0.0000 H   0  0  0  0  0  0  0  0  0  0  0  0
    2.1434   -1.2375    0.0000 C   0  0  0  0  0  0  0  0  0  0  0  0
    4.2868   -1.6500    0.0000 H   0  0  0  0  0  0  0  0  0  0  0  0
    4.2868   -0.0000    0.0000 H   0  0  0  0  0  0  0  0  0  0  0  0
    2.8579    0.8250    0.0000 H   0  0  0  0  0  0  0  0  0  0  0  0
  1  2  2  0  0  0  0
  2  3  1  0  0  0  0
  3  4  1  0  0  0  0
  4  5  1  0  0  0  0
  4  6  1  0  0  0  0
  4  7  1  0  0  0  0
  7  8  1  0  0  0  0
  7  9  1  0  0  0  0
  7 10  1  0  0  0  0
 10 11  1  0  0  0  0
 11 12  2  0  0  0  0
 12 13  1  0  0  0  0
 13 14  1  0  0  0  0
 13 15  2  0  0  0  0
 15 16  1  0  0  0  0
 16 17  1  0  0  0  0
 16 18  2  0  0  0  0
  3 18  1  0  0  0  0
 11 18  1  0  0  0  0
 15 19  1  0  0  0  0
 12 20  1  0  0  0  0
  3 21  1  0  0  0  0
  2 22  1  0  0  0  0
 22 23  1  0  0  0  0
 23 24  1  0  0  0  0
 24 25  4  0  0  0  0
 25 26  1  0  0  0  0
 25 27  4  0  0  0  0
 27 28  1  0  0  0  0
 27 29  4  0  0  0  0
 29 30  2  0  0  0  0
 29 31  4  0  0  0  0
 31 32  1  0  0  0  0
 31 33  4  0  0  0  0
 24 33  4  0  0  0  0
 33 34  2  0  0  0  0
 23 35  1  0  0  0  0
 23 36  1  0  0  0  0
 22 37  1  0  0  0  0
 37 38  2  0  0  0  0
 38 39  1  0  0  0  0
 38 40  1  0  0  0  0
 40 41  2  0  0  0  0
 41 42  1  0  0  0  0
 41 43  1  0  0  0  0
 43 44  2  0  0  0  0
 44 45  1  0  0  0  0
 45 46  2  0  0  0  0
 46 47  1  0  0  0  0
 47 48  1  0  0  0  0
 47 49  2  0  0  0  0
 37 49  1  0  0  0  0
 43 49  1  0  0  0  0
 46 50  1  0  0  0  0
 45 51  1  0  0  0  0
 44 52  1  0  0  0  0
M  END
> <Potency>
7.14139523380415

> <pIC50>
5.1462169306403585

> <Outcome>
Active

> <is_active>
1

$$$$

  Mrv1921 08232120312D          

 56 60  0  0  0  0            999 V2000
   -3.5509   -8.5127    0.0000 C   0  0  0  0  0  0  0  0  0  0  0  0
   -2.8364   -8.1002    0.0000 N   0  0  0  0  0  0  0  0  0  0  0  0
   -2.7502   -7.2797    0.0000 C   0  0  0  0  0  0  0  0  0  0  0  0
   -3.3633   -6.7277    0.0000 H   0  0  0  0  0  0  0  0  0  0  0  0
   -1.9432   -7.1082    0.0000 C   0  0  0  0  0  0  0  0  0  0  0  0
   -1.6077   -6.3545    0.0000 C   0  0  0  0  0  0  0  0  0  0  0  0
   -2.0202   -5.6400    0.0000 N   0  0  0  0  0  0  0  0  0  0  0  0
   -1.4681   -5.0269    0.0000 O   0  0  0  0  0  0  0  0  0  0  0  0
   -0.7145   -5.3625    0.0000 C   0  0  0  0  0  0  0  0  0  0  0  0
    0.0000   -4.9500    0.0000 C   0  0  0  0  0  0  0  0  0  0  0  0
    0.7145   -5.3625    0.0000 O   0  0  0  0  0  0  0  0  0  0  0  0
    0.0000   -4.1250    0.0000 N   0  0  0  0  0  0  0  0  0  0  0  0
    0.7145   -3.7125    0.0000 C   0  0  0  0  0  0  0  0  0  0  0  0
    0.7145   -2.8875    0.0000 C   0  0  0  0  0  0  0  0  0  0  0  0
    0.0000   -2.4750    0.0000 O   0  0  0  0  0  0  0  0  0  0  0  0
    1.4289   -2.4750    0.0000 N   0  0  0  0  0  0  0  0  0  0  0  0
    1.4289   -1.6500    0.0000 C   0  0  0  0  0  0  0  0  0  0  0  0
    0.7145   -1.2375    0.0000 C   0  0  0  0  0  0  0  0  0  0  0  0
    0.0000   -1.6500    0.0000 H   0  0  0  0  0  0  0  0  0  0  0  0
    0.7145   -0.4125    0.0000 N   0  0  0  0  0  0  0  0  0  0  0  0
    1.4289    0.0000    0.0000 C   0  0  0  0  0  0  0  0  0  0  0  0
    1.4289    0.8250    0.0000 H   0  0  0  0  0  0  0  0  0  0  0  0
    2.1434   -0.4125    0.0000 C   0  0  0  0  0  0  0  0  0  0  0  0
    2.8579    0.0000    0.0000 C   0  0  0  0  0  0  0  0  0  0  0  0
    3.5724   -0.4125    0.0000 C   0  0  0  0  0  0  0  0  0  0  0  0
    3.5724   -1.2375    0.0000 C   0  0  0  0  0  0  0  0  0  0  0  0
    2.8579   -1.6500    0.0000 C   0  0  0  0  0  0  0  0  0  0  0  0
    2.8579   -2.4750    0.0000 H   0  0  0  0  0  0  0  0  0  0  0  0
    2.1434   -1.2375    0.0000 C   0  0  0  0  0  0  0  0  0  0  0  0
    4.2868   -1.6500    0.0000 H   0  0  0  0  0  0  0  0  0  0  0  0
    4.2868   -0.0000    0.0000 H   0  0  0  0  0  0  0  0  0  0  0  0
    2.8579    0.8250    0.0000 H   0  0  0  0  0  0  0  0  0  0  0  0
    2.1434   -2.8875    0.0000 H   0  0  0  0  0  0  0  0  0  0  0  0
    1.4289   -4.1250    0.0000 C   0  0  0  0  0  0  0  0  0  0  0  0
    2.1434   -3.7125    0.0000 C   0  0  0  0  0  0  0  0  0  0  0  0
    1.4289   -3.3000    0.0000 H   0  0  0  0  0  0  0  0  0  0  0  0
    2.8579   -4.1250    0.0000 C   0  0  0  0  0  0  0  0  0  0  0  0
    3.5724   -3.7125    0.0000 H   0  0  0  0  0  0  0  0  0  0  0  0
    2.8579   -4.9500    0.0000 C   0  0  0  0  0  0  0  0  0  0  0  0
    3.5724   -5.3625    0.0000 H   0  0  0  0  0  0  0  0  0  0  0  0
    2.1434   -5.3625    0.0000 C   0  0  0  0  0  0  0  0  0  0  0  0
    2.1434   -6.1875    0.0000 Cl  0  0  0  0  0  0  0  0  0  0  0  0
    1.4289   -4.9500    0.0000 C   0  0  0  0  0  0  0  0  0  0  0  0
    0.7145   -4.5375    0.0000 H   0  0  0  0  0  0  0  0  0  0  0  0
    0.0000   -3.3000    0.0000 H   0  0  0  0  0  0  0  0  0  0  0  0
   -0.7145   -3.7125    0.0000 H   0  0  0  0  0  0  0  0  0  0  0  0
   -0.0226   -5.8118    0.0000 H   0  0  0  0  0  0  0  0  0  0  0  0
   -0.8007   -6.1830    0.0000 C   0  0  0  0  0  0  0  0  0  0  0  0
   -0.8403   -7.0070    0.0000 H   0  0  0  0  0  0  0  0  0  0  0  0
   -0.2677   -6.8126    0.0000 H   0  0  0  0  0  0  0  0  0  0  0  0
   -1.5307   -7.8227    0.0000 C   0  0  0  0  0  0  0  0  0  0  0  0
   -0.7103   -7.9089    0.0000 H   0  0  0  0  0  0  0  0  0  0  0  0
   -2.0828   -8.4357    0.0000 N   0  0  0  0  0  0  0  0  0  0  0  0
   -3.9634   -7.7982    0.0000 H   0  0  0  0  0  0  0  0  0  0  0  0
   -4.2654   -8.9252    0.0000 H   0  0  0  0  0  0  0  0  0  0  0  0
   -3.1384   -9.2272    0.0000 H   0  0  0  0  0  0  0  0  0  0  0  0
  1  2  1  0  0  0  0
  2  3  1  0  0  0  0
  3  4  1  0  0  0  0
  3  5  2  0  0  0  0
  5  6  1  0  0  0  0
  6  7  2  0  0  0  0
  7  8  1  0  0  0  0
  8  9  1  0  0  0  0
  9 10  1  0  0  0  0
 10 11  2  0  0  0  0
 10 12  1  0  0  0  0
 12 13  1  0  0  0  0
 13 14  1  0  0  0  0
 14 15  2  0  0  0  0
 14 16  1  0  0  0  0
 16 17  1  0  0  0  0
 17 18  2  0  0  0  0
 18 19  1  0  0  0  0
 18 20  1  0  0  0  0
 20 21  2  0  0  0  0
 21 22  1  0  0  0  0
 21 23  1  0  0  0  0
 23 24  2  0  0  0  0
 24 25  1  0  0  0  0
 25 26  2  0  0  0  0
 26 27  1  0  0  0  0
 27 28  1  0  0  0  0
 27 29  2  0  0  0  0
 17 29  1  0  0  0  0
 23 29  1  0  0  0  0
 26 30  1  0  0  0  0
 25 31  1  0  0  0  0
 24 32  1  0  0  0  0
 16 33  1  0  0  0  0
 13 34  1  0  0  0  0
 34 35  2  0  0  0  0
 35 36  1  0  0  0  0
 35 37  1  0  0  0  0
 37 38  1  0  0  0  0
 37 39  2  0  0  0  0
 39 40  1  0  0  0  0
 39 41  1  0  0  0  0
 41 42  1  0  0  0  0
 41 43  2  0  0  0  0
 34 43  1  0  0  0  0
 43 44  1  0  0  0  0
 13 45  1  0  0  0  0
 12 46  1  0  0  0  0
  9 47  1  0  0  0  0
  9 48  1  0  0  0  0
  6 48  1  0  0  0  0
 48 49  1  0  0  0  0
 48 50  1  0  0  0  0
  5 51  1  0  0  0  0
 51 52  1  0  0  0  0
 51 53  2  0  0  0  0
  2 53  1  0  0  0  0
  1 54  1  0  0  0  0
  1 55  1  0  0  0  0
  1 56  1  0  0  0  0
M  END
> <Potency>
7.19030700780295

> <pIC50>
5.143252565952553

> <Outcome>
Active

> <is_active>
1

$$$$

  Mrv1921 08232120312D          

 46 48  0  0  0  0            999 V2000
    5.0013    4.5375    0.0000 C   0  0  0  0  0  0  0  0  0  0  0  0
    5.0013    3.7125    0.0000 C   0  0  0  0  0  0  0  0  0  0  0  0
    4.2868    3.3000    0.0000 O   0  0  0  0  0  0  0  0  0  0  0  0
    4.2868    2.4750    0.0000 C   0  0  0  0  0  0  0  0  0  0  0  0
    5.0013    2.0625    0.0000 O   0  0  0  0  0  0  0  0  0  0  0  0
    3.5724    2.0625    0.0000 C   0  0  0  0  0  0  0  0  0  0  0  0
    3.5724    1.2375    0.0000 C   0  0  0  0  0  0  0  0  0  0  0  0
    4.2868    0.8250    0.0000 H   0  0  0  0  0  0  0  0  0  0  0  0
    2.8579    0.8250    0.0000 C   0  0  0  0  0  0  0  0  0  0  0  0
    2.8579   -0.0000    0.0000 H   0  0  0  0  0  0  0  0  0  0  0  0
    2.1434    1.2375    0.0000 C   0  0  0  0  0  0  0  0  0  0  0  0
    1.4289    0.8250    0.0000 N   0  0  0  0  0  0  0  0  0  0  0  0
    1.4289   -0.0000    0.0000 C   0  0  0  0  0  0  0  0  0  0  0  0
    2.1434   -0.4125    0.0000 O   0  0  0  0  0  0  0  0  0  0  0  0
    0.7145   -0.4125    0.0000 C   0  0  0  0  0  0  0  0  0  0  0  0
    0.7145   -1.2375    0.0000 C   0  0  0  0  0  0  0  0  0  0  0  0
    1.3819   -1.7224    0.0000 S   0  0  0  0  0  0  0  0  0  0  0  0
    1.1270   -2.5070    0.0000 C   0  0  0  0  0  0  0  0  0  0  0  0
    1.6119   -3.1745    0.0000 O   0  0  0  0  0  0  0  0  0  0  0  0
    0.3020   -2.5070    0.0000 N   0  0  0  0  0  0  0  0  0  0  0  0
   -0.1830   -3.1745    0.0000 C   0  0  0  0  0  0  0  0  0  0  0  0
    0.1526   -3.9282    0.0000 C   0  0  0  0  0  0  0  0  0  0  0  0
    0.9731   -4.0144    0.0000 H   0  0  0  0  0  0  0  0  0  0  0  0
   -0.3323   -4.5956    0.0000 C   0  0  0  0  0  0  0  0  0  0  0  0
    0.0032   -5.3493    0.0000 H   0  0  0  0  0  0  0  0  0  0  0  0
   -1.1528   -4.5094    0.0000 C   0  0  0  0  0  0  0  0  0  0  0  0
   -1.6377   -5.1768    0.0000 H   0  0  0  0  0  0  0  0  0  0  0  0
   -1.4884   -3.7557    0.0000 C   0  0  0  0  0  0  0  0  0  0  0  0
   -2.3088   -3.6695    0.0000 H   0  0  0  0  0  0  0  0  0  0  0  0
   -1.0034   -3.0882    0.0000 C   0  0  0  0  0  0  0  0  0  0  0  0
   -1.3390   -2.3346    0.0000 H   0  0  0  0  0  0  0  0  0  0  0  0
    0.0470   -1.7224    0.0000 C   0  0  0  0  0  0  0  0  0  0  0  0
   -0.7376   -1.4675    0.0000 O   0  0  0  0  0  0  0  0  0  0  0  0
   -0.0206   -0.8630    0.0000 H   0  0  0  0  0  0  0  0  0  0  0  0
    0.2611    0.2768    0.0000 H   0  0  0  0  0  0  0  0  0  0  0  0
   -0.1091   -0.3645    0.0000 H   0  0  0  0  0  0  0  0  0  0  0  0
    0.7145    1.2375    0.0000 H   0  0  0  0  0  0  0  0  0  0  0  0
    2.1434    2.0625    0.0000 C   0  0  0  0  0  0  0  0  0  0  0  0
    1.4289    2.4750    0.0000 H   0  0  0  0  0  0  0  0  0  0  0  0
    2.8579    2.4750    0.0000 C   0  0  0  0  0  0  0  0  0  0  0  0
    2.8579    3.3000    0.0000 H   0  0  0  0  0  0  0  0  0  0  0  0
    5.4546    3.0232    0.0000 H   0  0  0  0  0  0  0  0  0  0  0  0
    5.8249    3.6645    0.0000 H   0  0  0  0  0  0  0  0  0  0  0  0
    5.8263    4.5375    0.0000 H   0  0  0  0  0  0  0  0  0  0  0  0
    5.0013    5.3625    0.0000 H   0  0  0  0  0  0  0  0  0  0  0  0
    4.1763    4.5375    0.0000 H   0  0  0  0  0  0  0  0  0  0  0  0
  1  2  1  0  0  0  0
  2  3  1  0  0  0  0
  3  4  1  0  0  0  0
  4  5  2  0  0  0  0
  4  6  1  0  0  0  0
  6  7  2  0  0  0  0
  7  8  1  0  0  0  0
  7  9  1  0  0  0  0
  9 10  1  0  0  0  0
  9 11  2  0  0  0  0
 11 12  1  0  0  0  0
 12 13  1  0  0  0  0
 13 14  2  0  0  0  0
 13 15  1  0  0  0  0
 15 16  1  0  0  0  0
 16 17  1  0  0  0  0
 17 18  1  0  0  0  0
 18 19  2  0  0  0  0
 18 20  1  0  0  0  0
 20 21  1  0  0  0  0
 21 22  2  0  0  0  0
 22 23  1  0  0  0  0
 22 24  1  0  0  0  0
 24 25  1  0  0  0  0
 24 26  2  0  0  0  0
 26 27  1  0  0  0  0
 26 28  1  0  0  0  0
 28 29  1  0  0  0  0
 28 30  2  0  0  0  0
 21 30  1  0  0  0  0
 30 31  1  0  0  0  0
 20 32  1  0  0  0  0
 16 32  1  0  0  0  0
 32 33  2  0  0  0  0
 16 34  1  0  0  0  0
 15 35  1  0  0  0  0
 15 36  1  0  0  0  0
 12 37  1  0  0  0  0
 11 38  1  0  0  0  0
 38 39  1  0  0  0  0
 38 40  2  0  0  0  0
  6 40  1  0  0  0  0
 40 41  1  0  0  0  0
  2 42  1  0  0  0  0
  2 43  1  0  0  0  0
  1 44  1  0  0  0  0
  1 45  1  0  0  0  0
  1 46  1  0  0  0  0
M  END
> <Potency>
2.39920425917854

> <pIC50>
5.619932776268162

> <Outcome>
Active

> <is_active>
1

$$$$

  Mrv1921 08232120312D          

 55 58  0  0  0  0            999 V2000
    2.8579   -2.4750    0.0000 C   0  0  0  0  0  0  0  0  0  0  0  0
    2.8579   -1.6500    0.0000 N   0  0  0  0  0  0  0  0  0  0  0  0
    3.5724   -1.2375    0.0000 C   0  0  0  0  0  0  0  0  0  0  0  0
    4.2868   -1.6500    0.0000 O   0  0  0  0  0  0  0  0  0  0  0  0
    3.5724   -0.4125    0.0000 C   0  0  0  0  0  0  0  0  0  0  0  0
    4.2868    0.0000    0.0000 N   0  0  0  0  0  0  0  0  0  0  0  0
    4.2868    0.8250    0.0000 C   0  0  0  0  0  0  0  0  0  0  0  0
    3.8335    1.5143    0.0000 H   0  0  0  0  0  0  0  0  0  0  0  0
    3.4632    0.8730    0.0000 H   0  0  0  0  0  0  0  0  0  0  0  0
    5.0013    1.2375    0.0000 C   0  0  0  0  0  0  0  0  0  0  0  0
    5.0013    2.0625    0.0000 C   0  0  0  0  0  0  0  0  0  0  0  0
    4.2868    2.4750    0.0000 O   0  0  0  0  0  0  0  0  0  0  0  0
    5.7158    2.4750    0.0000 N   0  0  0  0  0  0  0  0  0  0  0  0
    5.7158    3.3000    0.0000 C   0  0  0  0  0  0  0  0  0  0  0  0
    5.0013    3.7125    0.0000 C   0  0  0  0  0  0  0  0  0  0  0  0
    4.2868    3.3000    0.0000 H   0  0  0  0  0  0  0  0  0  0  0  0
    5.0013    4.5375    0.0000 N   0  0  0  0  0  0  0  0  0  0  0  0
    5.7158    4.9500    0.0000 C   0  0  0  0  0  0  0  0  0  0  0  0
    5.7158    5.7750    0.0000 H   0  0  0  0  0  0  0  0  0  0  0  0
    6.4302    4.5375    0.0000 C   0  0  0  0  0  0  0  0  0  0  0  0
    7.1447    4.9500    0.0000 C   0  0  0  0  0  0  0  0  0  0  0  0
    7.8592    4.5375    0.0000 C   0  0  0  0  0  0  0  0  0  0  0  0
    7.8592    3.7125    0.0000 C   0  0  0  0  0  0  0  0  0  0  0  0
    8.5737    3.3000    0.0000 S   0  0  0  0  0  0  0  0  0  0  0  0
    9.2881    2.8875    0.0000 C   0  0  0  0  0  0  0  0  0  0  0  0
    8.8756    2.1730    0.0000 H   0  0  0  0  0  0  0  0  0  0  0  0
   10.0026    2.4750    0.0000 H   0  0  0  0  0  0  0  0  0  0  0  0
    9.7006    3.6020    0.0000 H   0  0  0  0  0  0  0  0  0  0  0  0
    8.1612    2.5855    0.0000 O   0  0  0  0  0  0  0  0  0  0  0  0
    8.9862    4.0145    0.0000 O   0  0  0  0  0  0  0  0  0  0  0  0
    7.1447    3.3000    0.0000 C   0  0  0  0  0  0  0  0  0  0  0  0
    7.1447    2.4750    0.0000 H   0  0  0  0  0  0  0  0  0  0  0  0
    6.4302    3.7125    0.0000 C   0  0  0  0  0  0  0  0  0  0  0  0
    8.5737    4.9500    0.0000 H   0  0  0  0  0  0  0  0  0  0  0  0
    7.1447    5.7750    0.0000 H   0  0  0  0  0  0  0  0  0  0  0  0
    6.5408    2.4750    0.0000 H   0  0  0  0  0  0  0  0  0  0  0  0
    5.7158    1.6500    0.0000 H   0  0  0  0  0  0  0  0  0  0  0  0
    5.7158    0.8250    0.0000 C   0  0  0  0  0  0  0  0  0  0  0  0
    6.4302    1.2375    0.0000 C   0  0  0  0  0  0  0  0  0  0  0  0
    7.1447    0.8250    0.0000 C   0  0  0  0  0  0  0  0  0  0  0  0
    7.8592    1.2375    0.0000 Cl  0  0  0  0  0  0  0  0  0  0  0  0
    7.1447    0.0000    0.0000 C   0  0  0  0  0  0  0  0  0  0  0  0
    6.4302   -0.4125    0.0000 C   0  0  0  0  0  0  0  0  0  0  0  0
    6.4302   -1.2375    0.0000 H   0  0  0  0  0  0  0  0  0  0  0  0
    5.7158    0.0000    0.0000 C   0  0  0  0  0  0  0  0  0  0  0  0
    5.0013   -0.4125    0.0000 C   0  0  0  0  0  0  0  0  0  0  0  0
    5.0013   -1.2375    0.0000 O   0  0  0  0  0  0  0  0  0  0  0  0
    7.8592   -0.4125    0.0000 H   0  0  0  0  0  0  0  0  0  0  0  0
    6.8427    1.9520    0.0000 H   0  0  0  0  0  0  0  0  0  0  0  0
    3.1190    0.2768    0.0000 H   0  0  0  0  0  0  0  0  0  0  0  0
    2.7488   -0.3645    0.0000 H   0  0  0  0  0  0  0  0  0  0  0  0
    2.1434   -1.2375    0.0000 H   0  0  0  0  0  0  0  0  0  0  0  0
    2.0329   -2.4750    0.0000 H   0  0  0  0  0  0  0  0  0  0  0  0
    2.8579   -3.3000    0.0000 H   0  0  0  0  0  0  0  0  0  0  0  0
    3.6829   -2.4750    0.0000 H   0  0  0  0  0  0  0  0  0  0  0  0
  1  2  1  0  0  0  0
  2  3  1  0  0  0  0
  3  4  2  0  0  0  0
  3  5  1  0  0  0  0
  5  6  1  0  0  0  0
  6  7  1  0  0  0  0
  7  8  1  0  0  0  0
  7  9  1  0  0  0  0
  7 10  1  0  0  0  0
 10 11  1  0  0  0  0
 11 12  2  0  0  0  0
 11 13  1  0  0  0  0
 13 14  1  0  0  0  0
 14 15  2  0  0  0  0
 15 16  1  0  0  0  0
 15 17  1  0  0  0  0
 17 18  2  0  0  0  0
 18 19  1  0  0  0  0
 18 20  1  0  0  0  0
 20 21  2  0  0  0  0
 21 22  1  0  0  0  0
 22 23  2  0  0  0  0
 23 24  1  0  0  0  0
 24 25  1  0  0  0  0
 25 26  1  0  0  0  0
 25 27  1  0  0  0  0
 25 28  1  0  0  0  0
 24 29  2  0  0  0  0
 24 30  2  0  0  0  0
 23 31  1  0  0  0  0
 31 32  1  0  0  0  0
 31 33  2  0  0  0  0
 14 33  1  0  0  0  0
 20 33  1  0  0  0  0
 22 34  1  0  0  0  0
 21 35  1  0  0  0  0
 13 36  1  0  0  0  0
 10 37  1  0  0  0  0
 10 38  1  0  0  0  0
 38 39  2  0  0  0  0
 39 40  1  0  0  0  0
 40 41  1  0  0  0  0
 40 42  2  0  0  0  0
 42 43  1  0  0  0  0
 43 44  1  0  0  0  0
 43 45  2  0  0  0  0
 38 45  1  0  0  0  0
 45 46  1  0  0  0  0
  6 46  1  0  0  0  0
 46 47  2  0  0  0  0
 42 48  1  0  0  0  0
 39 49  1  0  0  0  0
  5 50  1  0  0  0  0
  5 51  1  0  0  0  0
  2 52  1  0  0  0  0
  1 53  1  0  0  0  0
  1 54  1  0  0  0  0
  1 55  1  0  0  0  0
M  END
> <Potency>
0.329601887712951

> <pIC50>
6.482010309654016

> <Outcome>
Active

> <is_active>
1

$$$$

  Mrv1921 08232120312D          

 52 56  0  0  0  0            999 V2000
    1.2460   -8.1245    0.0000 C   0  0  0  0  0  0  0  0  0  0  0  0
    1.7309   -7.4570    0.0000 C   0  0  0  0  0  0  0  0  0  0  0  0
    1.4760   -6.6724    0.0000 N   0  0  0  0  0  0  0  0  0  0  0  0
    2.1434   -6.1875    0.0000 C   0  0  0  0  0  0  0  0  0  0  0  0
    2.1434   -5.3625    0.0000 C   0  0  0  0  0  0  0  0  0  0  0  0
    1.4289   -4.9500    0.0000 N   0  0  0  0  0  0  0  0  0  0  0  0
    0.7145   -5.3625    0.0000 C   0  0  0  0  0  0  0  0  0  0  0  0
    0.3442   -6.0997    0.0000 H   0  0  0  0  0  0  0  0  0  0  0  0
    1.0847   -6.0997    0.0000 H   0  0  0  0  0  0  0  0  0  0  0  0
    0.0000   -4.9500    0.0000 C   0  0  0  0  0  0  0  0  0  0  0  0
   -0.7145   -5.3625    0.0000 C   0  0  0  0  0  0  0  0  0  0  0  0
   -1.4289   -4.9500    0.0000 C   0  0  0  0  0  0  0  0  0  0  0  0
   -1.4289   -4.1250    0.0000 C   0  0  0  0  0  0  0  0  0  0  0  0
   -2.1434   -3.7125    0.0000 Cl  0  0  0  0  0  0  0  0  0  0  0  0
   -0.7145   -3.7125    0.0000 C   0  0  0  0  0  0  0  0  0  0  0  0
   -0.7145   -2.8875    0.0000 H   0  0  0  0  0  0  0  0  0  0  0  0
    0.0000   -4.1250    0.0000 C   0  0  0  0  0  0  0  0  0  0  0  0
    0.7145   -3.7125    0.0000 C   0  0  0  0  0  0  0  0  0  0  0  0
    0.7145   -2.8875    0.0000 C   0  0  0  0  0  0  0  0  0  0  0  0
    0.0000   -2.4750    0.0000 O   0  0  0  0  0  0  0  0  0  0  0  0
    1.4289   -2.4750    0.0000 N   0  0  0  0  0  0  0  0  0  0  0  0
    1.4289   -1.6500    0.0000 C   0  0  0  0  0  0  0  0  0  0  0  0
    0.7145   -1.2375    0.0000 C   0  0  0  0  0  0  0  0  0  0  0  0
    0.0000   -1.6500    0.0000 H   0  0  0  0  0  0  0  0  0  0  0  0
    0.7145   -0.4125    0.0000 N   0  0  0  0  0  0  0  0  0  0  0  0
    1.4289    0.0000    0.0000 C   0  0  0  0  0  0  0  0  0  0  0  0
    1.4289    0.8250    0.0000 H   0  0  0  0  0  0  0  0  0  0  0  0
    2.1434   -0.4125    0.0000 C   0  0  0  0  0  0  0  0  0  0  0  0
    2.8579    0.0000    0.0000 C   0  0  0  0  0  0  0  0  0  0  0  0
    3.5724   -0.4125    0.0000 C   0  0  0  0  0  0  0  0  0  0  0  0
    3.5724   -1.2375    0.0000 C   0  0  0  0  0  0  0  0  0  0  0  0
    4.2868   -1.6500    0.0000 F   0  0  0  0  0  0  0  0  0  0  0  0
    2.8579   -1.6500    0.0000 C   0  0  0  0  0  0  0  0  0  0  0  0
    2.8579   -2.4750    0.0000 H   0  0  0  0  0  0  0  0  0  0  0  0
    2.1434   -1.2375    0.0000 C   0  0  0  0  0  0  0  0  0  0  0  0
    4.2868   -0.0000    0.0000 H   0  0  0  0  0  0  0  0  0  0  0  0
    2.8579    0.8250    0.0000 H   0  0  0  0  0  0  0  0  0  0  0  0
    2.2539   -2.4750    0.0000 H   0  0  0  0  0  0  0  0  0  0  0  0
    1.4289   -3.3000    0.0000 H   0  0  0  0  0  0  0  0  0  0  0  0
    1.4289   -4.1250    0.0000 C   0  0  0  0  0  0  0  0  0  0  0  0
    2.2042   -4.4072    0.0000 H   0  0  0  0  0  0  0  0  0  0  0  0
    2.2042   -3.8428    0.0000 H   0  0  0  0  0  0  0  0  0  0  0  0
   -2.1434   -5.3625    0.0000 H   0  0  0  0  0  0  0  0  0  0  0  0
   -0.7145   -6.1875    0.0000 H   0  0  0  0  0  0  0  0  0  0  0  0
    2.9670   -5.3145    0.0000 H   0  0  0  0  0  0  0  0  0  0  0  0
    2.5968   -4.6732    0.0000 H   0  0  0  0  0  0  0  0  0  0  0  0
    2.8109   -6.6724    0.0000 C   0  0  0  0  0  0  0  0  0  0  0  0
    3.5955   -6.4175    0.0000 H   0  0  0  0  0  0  0  0  0  0  0  0
    2.5559   -7.4570    0.0000 S   0  0  0  0  0  0  0  0  0  0  0  0
    0.5786   -7.6396    0.0000 H   0  0  0  0  0  0  0  0  0  0  0  0
    0.7611   -8.7919    0.0000 H   0  0  0  0  0  0  0  0  0  0  0  0
    1.9134   -8.6094    0.0000 H   0  0  0  0  0  0  0  0  0  0  0  0
  1  2  1  0  0  0  0
  2  3  2  0  0  0  0
  3  4  1  0  0  0  0
  4  5  1  0  0  0  0
  5  6  1  0  0  0  0
  6  7  1  0  0  0  0
  7  8  1  0  0  0  0
  7  9  1  0  0  0  0
  7 10  1  0  0  0  0
 10 11  2  0  0  0  0
 11 12  1  0  0  0  0
 12 13  2  0  0  0  0
 13 14  1  0  0  0  0
 13 15  1  0  0  0  0
 15 16  1  0  0  0  0
 15 17  2  0  0  0  0
 10 17  1  0  0  0  0
 17 18  1  0  0  0  0
 18 19  1  0  0  0  0
 19 20  2  0  0  0  0
 19 21  1  0  0  0  0
 21 22  1  0  0  0  0
 22 23  2  0  0  0  0
 23 24  1  0  0  0  0
 23 25  1  0  0  0  0
 25 26  2  0  0  0  0
 26 27  1  0  0  0  0
 26 28  1  0  0  0  0
 28 29  2  0  0  0  0
 29 30  1  0  0  0  0
 30 31  2  0  0  0  0
 31 32  1  0  0  0  0
 31 33  1  0  0  0  0
 33 34  1  0  0  0  0
 33 35  2  0  0  0  0
 22 35  1  0  0  0  0
 28 35  1  0  0  0  0
 30 36  1  0  0  0  0
 29 37  1  0  0  0  0
 21 38  1  0  0  0  0
 18 39  1  0  0  0  0
 18 40  1  0  0  0  0
  6 40  1  0  0  0  0
 40 41  1  0  0  0  0
 40 42  1  0  0  0  0
 12 43  1  0  0  0  0
 11 44  1  0  0  0  0
  5 45  1  0  0  0  0
  5 46  1  0  0  0  0
  4 47  2  0  0  0  0
 47 48  1  0  0  0  0
 47 49  1  0  0  0  0
  2 49  1  0  0  0  0
  1 50  1  0  0  0  0
  1 51  1  0  0  0  0
  1 52  1  0  0  0  0
M  END
> <Potency>
1.11626889815731

> <pIC50>
5.952231175542623

> <Outcome>
Active

> <is_active>
1

$$$$

  Mrv1921 08232120312D          

 76 80  0  0  0  0            999 V2000
    1.6909   -2.9442    0.0000 C   0  0  0  0  0  0  0  0  0  0  0  0
    1.3036   -2.2158    0.0000 N   0  0  0  0  0  0  0  0  0  0  0  0
    0.4866   -2.1010    0.0000 N   0  0  0  0  0  0  0  0  0  0  0  0
    0.3434   -1.2885    0.0000 N   0  0  0  0  0  0  0  0  0  0  0  0
    1.0718   -0.9012    0.0000 C   0  0  0  0  0  0  0  0  0  0  0  0
    1.1866   -0.0842    0.0000 C   0  0  0  0  0  0  0  0  0  0  0  0
    0.5365    0.4237    0.0000 N   0  0  0  0  0  0  0  0  0  0  0  0
    0.6513    1.2407    0.0000 C   0  0  0  0  0  0  0  0  0  0  0  0
    1.4163    1.5497    0.0000 O   0  0  0  0  0  0  0  0  0  0  0  0
    0.0012    1.7486    0.0000 O   0  0  0  0  0  0  0  0  0  0  0  0
    0.1160    2.5656    0.0000 C   0  0  0  0  0  0  0  0  0  0  0  0
    0.2309    3.3826    0.0000 C   0  0  0  0  0  0  0  0  0  0  0  0
    1.0478    3.2677    0.0000 H   0  0  0  0  0  0  0  0  0  0  0  0
    0.3457    4.1995    0.0000 H   0  0  0  0  0  0  0  0  0  0  0  0
   -0.5861    3.4974    0.0000 H   0  0  0  0  0  0  0  0  0  0  0  0
   -0.7009    2.6804    0.0000 C   0  0  0  0  0  0  0  0  0  0  0  0
   -1.4118    3.0991    0.0000 H   0  0  0  0  0  0  0  0  0  0  0  0
   -1.3598    2.1839    0.0000 H   0  0  0  0  0  0  0  0  0  0  0  0
   -0.4944    1.8817    0.0000 H   0  0  0  0  0  0  0  0  0  0  0  0
    0.9330    2.4508    0.0000 C   0  0  0  0  0  0  0  0  0  0  0  0
    0.5143    1.7399    0.0000 H   0  0  0  0  0  0  0  0  0  0  0  0
    1.4295    1.7919    0.0000 H   0  0  0  0  0  0  0  0  0  0  0  0
    1.7317    2.6573    0.0000 H   0  0  0  0  0  0  0  0  0  0  0  0
   -0.2284    0.1147    0.0000 H   0  0  0  0  0  0  0  0  0  0  0  0
    2.0089   -0.1513    0.0000 H   0  0  0  0  0  0  0  0  0  0  0  0
    1.7315    0.5353    0.0000 H   0  0  0  0  0  0  0  0  0  0  0  0
    1.6653   -1.4743    0.0000 C   0  0  0  0  0  0  0  0  0  0  0  0
    2.4777   -1.3310    0.0000 C   0  0  0  0  0  0  0  0  0  0  0  0
    2.7599   -0.5558    0.0000 N   0  0  0  0  0  0  0  0  0  0  0  0
    3.5724   -0.4125    0.0000 C   0  0  0  0  0  0  0  0  0  0  0  0
    4.1027   -1.0445    0.0000 C   0  0  0  0  0  0  0  0  0  0  0  0
    4.6330   -0.4125    0.0000 C   0  0  0  0  0  0  0  0  0  0  0  0
    5.4454   -0.5558    0.0000 O   0  0  0  0  0  0  0  0  0  0  0  0
    4.3508    0.3627    0.0000 N   0  0  0  0  0  0  0  0  0  0  0  0
    3.5383    0.5060    0.0000 C   0  0  0  0  0  0  0  0  0  0  0  0
    3.0080   -0.1260    0.0000 C   0  0  0  0  0  0  0  0  0  0  0  0
    2.7259    0.6493    0.0000 H   0  0  0  0  0  0  0  0  0  0  0  0
    2.1956    0.0173    0.0000 N   0  0  0  0  0  0  0  0  0  0  0  0
    1.9134    0.7925    0.0000 C   0  0  0  0  0  0  0  0  0  0  0  0
    1.0885    0.8068    0.0000 H   0  0  0  0  0  0  0  0  0  0  0  0
    2.4437    1.4245    0.0000 C   0  0  0  0  0  0  0  0  0  0  0  0
    2.1615    2.1998    0.0000 C   0  0  0  0  0  0  0  0  0  0  0  0
    2.6918    2.8317    0.0000 C   0  0  0  0  0  0  0  0  0  0  0  0
    3.5043    2.6885    0.0000 C   0  0  0  0  0  0  0  0  0  0  0  0
    3.7865    1.9132    0.0000 C   0  0  0  0  0  0  0  0  0  0  0  0
    4.5989    1.7700    0.0000 H   0  0  0  0  0  0  0  0  0  0  0  0
    3.2562    1.2813    0.0000 C   0  0  0  0  0  0  0  0  0  0  0  0
    4.0346    3.3205    0.0000 H   0  0  0  0  0  0  0  0  0  0  0  0
    2.4097    3.6070    0.0000 H   0  0  0  0  0  0  0  0  0  0  0  0
    2.9740    2.0565    0.0000 H   0  0  0  0  0  0  0  0  0  0  0  0
    4.8811    0.9947    0.0000 H   0  0  0  0  0  0  0  0  0  0  0  0
    3.3882   -1.4570    0.0000 C   0  0  0  0  0  0  0  0  0  0  0  0
    4.1027   -1.8695    0.0000 H   0  0  0  0  0  0  0  0  0  0  0  0
    3.6704   -0.6817    0.0000 H   0  0  0  0  0  0  0  0  0  0  0  0
    3.3882   -2.2820    0.0000 C   0  0  0  0  0  0  0  0  0  0  0  0
    2.7089   -2.7502    0.0000 H   0  0  0  0  0  0  0  0  0  0  0  0
    3.4211   -3.1063    0.0000 H   0  0  0  0  0  0  0  0  0  0  0  0
    4.1027   -2.6945    0.0000 O   0  0  0  0  0  0  0  0  0  0  0  0
    4.8171   -2.2820    0.0000 C   0  0  0  0  0  0  0  0  0  0  0  0
    5.5316   -2.6945    0.0000 C   0  0  0  0  0  0  0  0  0  0  0  0
    6.2461   -2.2820    0.0000 C   0  0  0  0  0  0  0  0  0  0  0  0
    6.2461   -1.4570    0.0000 C   0  0  0  0  0  0  0  0  0  0  0  0
    6.9605   -1.0445    0.0000 Cl  0  0  0  0  0  0  0  0  0  0  0  0
    5.5316   -1.0445    0.0000 C   0  0  0  0  0  0  0  0  0  0  0  0
    6.2074   -0.5713    0.0000 H   0  0  0  0  0  0  0  0  0  0  0  0
    4.8171   -1.4570    0.0000 C   0  0  0  0  0  0  0  0  0  0  0  0
    6.9605   -2.6945    0.0000 H   0  0  0  0  0  0  0  0  0  0  0  0
    5.5316   -3.5195    0.0000 H   0  0  0  0  0  0  0  0  0  0  0  0
    4.3965   -0.4503    0.0000 H   0  0  0  0  0  0  0  0  0  0  0  0
    4.1583    0.1683    0.0000 H   0  0  0  0  0  0  0  0  0  0  0  0
    3.2902   -1.1877    0.0000 H   0  0  0  0  0  0  0  0  0  0  0  0
    2.1166   -2.0728    0.0000 H   0  0  0  0  0  0  0  0  0  0  0  0
    2.8661   -2.0589    0.0000 H   0  0  0  0  0  0  0  0  0  0  0  0
    0.9625   -3.3315    0.0000 H   0  0  0  0  0  0  0  0  0  0  0  0
    2.0782   -3.6726    0.0000 H   0  0  0  0  0  0  0  0  0  0  0  0
    2.4193   -2.5569    0.0000 H   0  0  0  0  0  0  0  0  0  0  0  0
  1  2  1  0  0  0  0
  2  3  1  0  0  0  0
  3  4  2  0  0  0  0
  4  5  1  0  0  0  0
  5  6  1  0  0  0  0
  6  7  1  0  0  0  0
  7  8  1  0  0  0  0
  8  9  2  0  0  0  0
  8 10  1  0  0  0  0
 10 11  1  0  0  0  0
 11 12  1  0  0  0  0
 12 13  1  0  0  0  0
 12 14  1  0  0  0  0
 12 15  1  0  0  0  0
 11 16  1  0  0  0  0
 16 17  1  0  0  0  0
 16 18  1  0  0  0  0
 16 19  1  0  0  0  0
 11 20  1  0  0  0  0
 20 21  1  0  0  0  0
 20 22  1  0  0  0  0
 20 23  1  0  0  0  0
  7 24  1  0  0  0  0
  6 25  1  0  0  0  0
  6 26  1  0  0  0  0
  5 27  2  0  0  0  0
  2 27  1  0  0  0  0
 27 28  1  0  0  0  0
 28 29  1  0  0  0  0
 29 30  1  0  0  0  0
 30 31  1  0  0  0  0
 31 32  1  0  0  0  0
 32 33  2  0  0  0  0
 32 34  1  0  0  0  0
 34 35  1  0  0  0  0
 35 36  2  0  0  0  0
 36 37  1  0  0  0  0
 36 38  1  0  0  0  0
 38 39  2  0  0  0  0
 39 40  1  0  0  0  0
 39 41  1  0  0  0  0
 41 42  2  0  0  0  0
 42 43  1  0  0  0  0
 43 44  2  0  0  0  0
 44 45  1  0  0  0  0
 45 46  1  0  0  0  0
 45 47  2  0  0  0  0
 35 47  1  0  0  0  0
 41 47  1  0  0  0  0
 44 48  1  0  0  0  0
 43 49  1  0  0  0  0
 42 50  1  0  0  0  0
 34 51  1  0  0  0  0
 31 52  1  0  0  0  0
 52 53  1  0  0  0  0
 52 54  1  0  0  0  0
 52 55  1  0  0  0  0
 55 56  1  0  0  0  0
 55 57  1  0  0  0  0
 55 58  1  0  0  0  0
 58 59  1  0  0  0  0
 59 60  2  0  0  0  0
 60 61  1  0  0  0  0
 61 62  2  0  0  0  0
 62 63  1  0  0  0  0
 62 64  1  0  0  0  0
 64 65  1  0  0  0  0
 64 66  2  0  0  0  0
 31 66  1  0  0  0  0
 59 66  1  0  0  0  0
 61 67  1  0  0  0  0
 60 68  1  0  0  0  0
 30 69  1  0  0  0  0
 30 70  1  0  0  0  0
 29 71  1  0  0  0  0
 28 72  1  0  0  0  0
 28 73  1  0  0  0  0
  1 74  1  0  0  0  0
  1 75  1  0  0  0  0
  1 76  1  0  0  0  0
M  END
> <Potency>
3.48592645678533

> <pIC50>
5.457681779517828

> <Outcome>
Active

> <is_active>
1

$$$$

  Mrv1921 08232120312D          

 39 42  0  0  0  0            999 V2000
    2.1434   -2.8875    0.0000 O   0  0  0  0  0  0  0  0  0  0  0  0
    1.4289   -2.4750    0.0000 C   0  0  0  0  0  0  0  0  0  0  0  0
    0.7145   -2.8875    0.0000 N   0  0  0  0  0  0  0  0  0  0  0  0
    0.7145   -3.7125    0.0000 C   0  0  0  0  0  0  0  0  0  0  0  0
    1.4289   -4.1250    0.0000 C   0  0  0  0  0  0  0  0  0  0  0  0
    2.1434   -3.7125    0.0000 H   0  0  0  0  0  0  0  0  0  0  0  0
    1.4289   -4.9500    0.0000 N   0  0  0  0  0  0  0  0  0  0  0  0
    0.7145   -5.3625    0.0000 C   0  0  0  0  0  0  0  0  0  0  0  0
    0.7145   -6.1875    0.0000 H   0  0  0  0  0  0  0  0  0  0  0  0
    0.0000   -4.9500    0.0000 C   0  0  0  0  0  0  0  0  0  0  0  0
   -0.7145   -5.3625    0.0000 C   0  0  0  0  0  0  0  0  0  0  0  0
   -1.4289   -4.9500    0.0000 N   0  0  0  0  0  0  0  0  0  0  0  0
   -1.4289   -4.1250    0.0000 C   0  0  0  0  0  0  0  0  0  0  0  0
   -0.7145   -3.7125    0.0000 C   0  0  0  0  0  0  0  0  0  0  0  0
   -0.7145   -2.8875    0.0000 H   0  0  0  0  0  0  0  0  0  0  0  0
    0.0000   -4.1250    0.0000 C   0  0  0  0  0  0  0  0  0  0  0  0
   -2.1434   -3.7125    0.0000 H   0  0  0  0  0  0  0  0  0  0  0  0
   -0.7145   -6.1875    0.0000 H   0  0  0  0  0  0  0  0  0  0  0  0
    0.0000   -2.4750    0.0000 H   0  0  0  0  0  0  0  0  0  0  0  0
    1.4289   -1.6500    0.0000 C   0  0  0  0  0  0  0  0  0  0  0  0
    0.7145   -1.2375    0.0000 C   0  0  0  0  0  0  0  0  0  0  0  0
   -0.1091   -1.2855    0.0000 H   0  0  0  0  0  0  0  0  0  0  0  0
    0.2611   -1.9268    0.0000 H   0  0  0  0  0  0  0  0  0  0  0  0
    0.7145   -0.4125    0.0000 C   0  0  0  0  0  0  0  0  0  0  0  0
    0.2611    0.2768    0.0000 H   0  0  0  0  0  0  0  0  0  0  0  0
   -0.1091   -0.3645    0.0000 H   0  0  0  0  0  0  0  0  0  0  0  0
    1.4289    0.0000    0.0000 N   0  0  0  0  0  0  0  0  0  0  0  0
    1.4289    0.8250    0.0000 H   0  0  0  0  0  0  0  0  0  0  0  0
    2.1434   -0.4125    0.0000 C   0  0  0  0  0  0  0  0  0  0  0  0
    2.8579    0.0000    0.0000 C   0  0  0  0  0  0  0  0  0  0  0  0
    3.5724   -0.4125    0.0000 C   0  0  0  0  0  0  0  0  0  0  0  0
    4.2868   -0.0000    0.0000 Cl  0  0  0  0  0  0  0  0  0  0  0  0
    3.5724   -1.2375    0.0000 C   0  0  0  0  0  0  0  0  0  0  0  0
    4.2868   -1.6500    0.0000 Cl  0  0  0  0  0  0  0  0  0  0  0  0
    2.8579   -1.6500    0.0000 C   0  0  0  0  0  0  0  0  0  0  0  0
    3.2704   -2.3645    0.0000 H   0  0  0  0  0  0  0  0  0  0  0  0
    2.1434   -1.2375    0.0000 C   0  0  0  0  0  0  0  0  0  0  0  0
    2.8579    0.8250    0.0000 H   0  0  0  0  0  0  0  0  0  0  0  0
    2.1434   -2.0625    0.0000 H   0  0  0  0  0  0  0  0  0  0  0  0
  1  2  2  0  0  0  0
  2  3  1  0  0  0  0
  3  4  1  0  0  0  0
  4  5  2  0  0  0  0
  5  6  1  0  0  0  0
  5  7  1  0  0  0  0
  7  8  2  0  0  0  0
  8  9  1  0  0  0  0
  8 10  1  0  0  0  0
 10 11  2  0  0  0  0
 11 12  1  0  0  0  0
 12 13  2  0  0  0  0
 13 14  1  0  0  0  0
 14 15  1  0  0  0  0
 14 16  2  0  0  0  0
  4 16  1  0  0  0  0
 10 16  1  0  0  0  0
 13 17  1  0  0  0  0
 11 18  1  0  0  0  0
  3 19  1  0  0  0  0
  2 20  1  0  0  0  0
 20 21  1  0  0  0  0
 21 22  1  0  0  0  0
 21 23  1  0  0  0  0
 21 24  1  0  0  0  0
 24 25  1  0  0  0  0
 24 26  1  0  0  0  0
 24 27  1  0  0  0  0
 27 28  1  0  0  0  0
 27 29  1  0  0  0  0
 29 30  2  0  0  0  0
 30 31  1  0  0  0  0
 31 32  1  0  0  0  0
 31 33  2  0  0  0  0
 33 34  1  0  0  0  0
 33 35  1  0  0  0  0
 35 36  1  0  0  0  0
 35 37  2  0  0  0  0
 20 37  1  0  0  0  0
 29 37  1  0  0  0  0
 30 38  1  0  0  0  0
 20 39  1  0  0  0  0
M  END
> <Potency>
1.03845253495196

> <pIC50>
5.983613349181402

> <Outcome>
Active

> <is_active>
1

$$$$

  Mrv1921 08232120312D          

 39 42  0  0  0  0            999 V2000
    2.1434   -2.8875    0.0000 O   0  0  0  0  0  0  0  0  0  0  0  0
    1.4289   -2.4750    0.0000 C   0  0  0  0  0  0  0  0  0  0  0  0
    0.7145   -2.8875    0.0000 N   0  0  0  0  0  0  0  0  0  0  0  0
    0.7145   -3.7125    0.0000 C   0  0  0  0  0  0  0  0  0  0  0  0
    1.4289   -4.1250    0.0000 C   0  0  0  0  0  0  0  0  0  0  0  0
    2.1434   -3.7125    0.0000 H   0  0  0  0  0  0  0  0  0  0  0  0
    1.4289   -4.9500    0.0000 N   0  0  0  0  0  0  0  0  0  0  0  0
    0.7145   -5.3625    0.0000 C   0  0  0  0  0  0  0  0  0  0  0  0
    0.7145   -6.1875    0.0000 H   0  0  0  0  0  0  0  0  0  0  0  0
    0.0000   -4.9500    0.0000 C   0  0  0  0  0  0  0  0  0  0  0  0
   -0.7145   -5.3625    0.0000 C   0  0  0  0  0  0  0  0  0  0  0  0
   -1.4289   -4.9500    0.0000 C   0  0  0  0  0  0  0  0  0  0  0  0
   -1.4289   -4.1250    0.0000 N   0  0  0  0  0  0  0  0  0  0  0  0
   -0.7145   -3.7125    0.0000 C   0  0  0  0  0  0  0  0  0  0  0  0
   -0.7145   -2.8875    0.0000 H   0  0  0  0  0  0  0  0  0  0  0  0
    0.0000   -4.1250    0.0000 C   0  0  0  0  0  0  0  0  0  0  0  0
   -2.1434   -5.3625    0.0000 H   0  0  0  0  0  0  0  0  0  0  0  0
   -0.7145   -6.1875    0.0000 H   0  0  0  0  0  0  0  0  0  0  0  0
    0.0000   -2.4750    0.0000 H   0  0  0  0  0  0  0  0  0  0  0  0
    1.4289   -1.6500    0.0000 C   0  0  0  0  0  0  0  0  0  0  0  0
    0.7145   -1.2375    0.0000 C   0  0  0  0  0  0  0  0  0  0  0  0
   -0.1091   -1.2855    0.0000 H   0  0  0  0  0  0  0  0  0  0  0  0
    0.2611   -1.9268    0.0000 H   0  0  0  0  0  0  0  0  0  0  0  0
    0.7145   -0.4125    0.0000 C   0  0  0  0  0  0  0  0  0  0  0  0
    0.2611    0.2768    0.0000 H   0  0  0  0  0  0  0  0  0  0  0  0
   -0.1091   -0.3645    0.0000 H   0  0  0  0  0  0  0  0  0  0  0  0
    1.4289    0.0000    0.0000 N   0  0  0  0  0  0  0  0  0  0  0  0
    1.4289    0.8250    0.0000 H   0  0  0  0  0  0  0  0  0  0  0  0
    2.1434   -0.4125    0.0000 C   0  0  0  0  0  0  0  0  0  0  0  0
    2.8579    0.0000    0.0000 C   0  0  0  0  0  0  0  0  0  0  0  0
    3.5724   -0.4125    0.0000 C   0  0  0  0  0  0  0  0  0  0  0  0
    4.2868   -0.0000    0.0000 Cl  0  0  0  0  0  0  0  0  0  0  0  0
    3.5724   -1.2375    0.0000 C   0  0  0  0  0  0  0  0  0  0  0  0
    4.2868   -1.6500    0.0000 Cl  0  0  0  0  0  0  0  0  0  0  0  0
    2.8579   -1.6500    0.0000 C   0  0  0  0  0  0  0  0  0  0  0  0
    3.2704   -2.3645    0.0000 H   0  0  0  0  0  0  0  0  0  0  0  0
    2.1434   -1.2375    0.0000 C   0  0  0  0  0  0  0  0  0  0  0  0
    2.8579    0.8250    0.0000 H   0  0  0  0  0  0  0  0  0  0  0  0
    2.1434   -2.0625    0.0000 H   0  0  0  0  0  0  0  0  0  0  0  0
  1  2  2  0  0  0  0
  2  3  1  0  0  0  0
  3  4  1  0  0  0  0
  4  5  1  0  0  0  0
  5  6  1  0  0  0  0
  5  7  2  0  0  0  0
  7  8  1  0  0  0  0
  8  9  1  0  0  0  0
  8 10  2  0  0  0  0
 10 11  1  0  0  0  0
 11 12  2  0  0  0  0
 12 13  1  0  0  0  0
 13 14  2  0  0  0  0
 14 15  1  0  0  0  0
 14 16  1  0  0  0  0
  4 16  2  0  0  0  0
 10 16  1  0  0  0  0
 12 17  1  0  0  0  0
 11 18  1  0  0  0  0
  3 19  1  0  0  0  0
  2 20  1  0  0  0  0
 20 21  1  0  0  0  0
 21 22  1  0  0  0  0
 21 23  1  0  0  0  0
 21 24  1  0  0  0  0
 24 25  1  0  0  0  0
 24 26  1  0  0  0  0
 24 27  1  0  0  0  0
 27 28  1  0  0  0  0
 27 29  1  0  0  0  0
 29 30  2  0  0  0  0
 30 31  1  0  0  0  0
 31 32  1  0  0  0  0
 31 33  2  0  0  0  0
 33 34  1  0  0  0  0
 33 35  1  0  0  0  0
 35 36  1  0  0  0  0
 35 37  2  0  0  0  0
 20 37  1  0  0  0  0
 29 37  1  0  0  0  0
 30 38  1  0  0  0  0
 20 39  1  0  0  0  0
M  END
> <Potency>
0.521020551424108

> <pIC50>
6.283145145809776

> <Outcome>
Active

> <is_active>
1

$$$$

  Mrv1921 08232120312D          

 38 42  0  0  0  0            999 V2000
    5.7542   -0.5384    0.0000 O   0  0  0  0  0  0  0  0  0  0  0  0
    4.9696   -0.7933    0.0000 C   0  0  0  0  0  0  0  0  0  0  0  0
    4.7146   -1.5779    0.0000 N   0  0  0  0  0  0  0  0  0  0  0  0
    5.4497   -1.9525    0.0000 H   0  0  0  0  0  0  0  0  0  0  0  0
    3.8896   -1.5779    0.0000 C   0  0  0  0  0  0  0  0  0  0  0  0
    4.1446   -2.3626    0.0000 C   0  0  0  0  0  0  0  0  0  0  0  0
    4.4669   -3.1220    0.0000 H   0  0  0  0  0  0  0  0  0  0  0  0
    4.9040   -2.6849    0.0000 H   0  0  0  0  0  0  0  0  0  0  0  0
    3.4771   -2.8475    0.0000 O   0  0  0  0  0  0  0  0  0  0  0  0
    2.8097   -2.3626    0.0000 C   0  0  0  0  0  0  0  0  0  0  0  0
    2.0027   -2.5341    0.0000 C   0  0  0  0  0  0  0  0  0  0  0  0
    1.4507   -1.9210    0.0000 C   0  0  0  0  0  0  0  0  0  0  0  0
    1.7056   -1.1364    0.0000 C   0  0  0  0  0  0  0  0  0  0  0  0
    1.1536   -0.5233    0.0000 Cl  0  0  0  0  0  0  0  0  0  0  0  0
    2.5126   -0.9649    0.0000 C   0  0  0  0  0  0  0  0  0  0  0  0
    2.0776   -0.2639    0.0000 H   0  0  0  0  0  0  0  0  0  0  0  0
    3.0646   -1.5779    0.0000 C   0  0  0  0  0  0  0  0  0  0  0  0
    0.6437   -2.0925    0.0000 H   0  0  0  0  0  0  0  0  0  0  0  0
    1.7478   -3.3187    0.0000 H   0  0  0  0  0  0  0  0  0  0  0  0
    3.6347   -0.7933    0.0000 C   0  0  0  0  0  0  0  0  0  0  0  0
    2.8501   -0.5384    0.0000 O   0  0  0  0  0  0  0  0  0  0  0  0
    4.3021   -0.3084    0.0000 N   0  0  0  0  0  0  0  0  0  0  0  0
    4.3021    0.5166    0.0000 C   0  0  0  0  0  0  0  0  0  0  0  0
    3.5877    0.9291    0.0000 C   0  0  0  0  0  0  0  0  0  0  0  0
    2.8732    0.5166    0.0000 H   0  0  0  0  0  0  0  0  0  0  0  0
    3.5877    1.7541    0.0000 N   0  0  0  0  0  0  0  0  0  0  0  0
    4.3021    2.1666    0.0000 C   0  0  0  0  0  0  0  0  0  0  0  0
    4.3021    2.9916    0.0000 H   0  0  0  0  0  0  0  0  0  0  0  0
    5.0166    1.7541    0.0000 C   0  0  0  0  0  0  0  0  0  0  0  0
    5.7311    2.1666    0.0000 C   0  0  0  0  0  0  0  0  0  0  0  0
    6.4456    1.7541    0.0000 C   0  0  0  0  0  0  0  0  0  0  0  0
    6.4456    0.9291    0.0000 C   0  0  0  0  0  0  0  0  0  0  0  0
    7.1600    0.5166    0.0000 F   0  0  0  0  0  0  0  0  0  0  0  0
    5.7311    0.5166    0.0000 C   0  0  0  0  0  0  0  0  0  0  0  0
    5.7311   -0.3084    0.0000 H   0  0  0  0  0  0  0  0  0  0  0  0
    5.0166    0.9291    0.0000 C   0  0  0  0  0  0  0  0  0  0  0  0
    7.1600    2.1666    0.0000 H   0  0  0  0  0  0  0  0  0  0  0  0
    5.7311    2.9916    0.0000 H   0  0  0  0  0  0  0  0  0  0  0  0
  1  2  2  0  0  0  0
  2  3  1  0  0  0  0
  3  4  1  0  0  0  0
  3  5  1  0  0  0  0
  5  6  1  0  0  0  0
  6  7  1  0  0  0  0
  6  8  1  0  0  0  0
  6  9  1  0  0  0  0
  9 10  1  0  0  0  0
 10 11  2  0  0  0  0
 11 12  1  0  0  0  0
 12 13  2  0  0  0  0
 13 14  1  0  0  0  0
 13 15  1  0  0  0  0
 15 16  1  0  0  0  0
 15 17  2  0  0  0  0
  5 17  1  0  0  0  0
 10 17  1  0  0  0  0
 12 18  1  0  0  0  0
 11 19  1  0  0  0  0
  5 20  1  0  0  0  0
 20 21  2  0  0  0  0
 20 22  1  0  0  0  0
  2 22  1  0  0  0  0
 22 23  1  0  0  0  0
 23 24  2  0  0  0  0
 24 25  1  0  0  0  0
 24 26  1  0  0  0  0
 26 27  2  0  0  0  0
 27 28  1  0  0  0  0
 27 29  1  0  0  0  0
 29 30  2  0  0  0  0
 30 31  1  0  0  0  0
 31 32  2  0  0  0  0
 32 33  1  0  0  0  0
 32 34  1  0  0  0  0
 34 35  1  0  0  0  0
 34 36  2  0  0  0  0
 23 36  1  0  0  0  0
 29 36  1  0  0  0  0
 31 37  1  0  0  0  0
 30 38  1  0  0  0  0
M  END
> <Potency>
1.38413747648093

> <pIC50>
5.858820772370654

> <Outcome>
Active

> <is_active>
1

$$$$

  Mrv1921 08232120312D          

 51 55  0  0  0  0            999 V2000
    3.5955   -6.4175    0.0000 C   0  0  0  0  0  0  0  0  0  0  0  0
    2.8109   -6.6724    0.0000 N   0  0  0  0  0  0  0  0  0  0  0  0
    2.5559   -7.4570    0.0000 N   0  0  0  0  0  0  0  0  0  0  0  0
    1.7309   -7.4570    0.0000 N   0  0  0  0  0  0  0  0  0  0  0  0
    1.4760   -6.6724    0.0000 C   0  0  0  0  0  0  0  0  0  0  0  0
    0.6914   -6.4175    0.0000 H   0  0  0  0  0  0  0  0  0  0  0  0
    2.1434   -6.1875    0.0000 C   0  0  0  0  0  0  0  0  0  0  0  0
    2.1434   -5.3625    0.0000 C   0  0  0  0  0  0  0  0  0  0  0  0
    2.8579   -4.9500    0.0000 O   0  0  0  0  0  0  0  0  0  0  0  0
    1.4289   -4.9500    0.0000 N   0  0  0  0  0  0  0  0  0  0  0  0
    0.7145   -5.3625    0.0000 C   0  0  0  0  0  0  0  0  0  0  0  0
    0.3442   -6.0997    0.0000 H   0  0  0  0  0  0  0  0  0  0  0  0
    1.0847   -6.0997    0.0000 H   0  0  0  0  0  0  0  0  0  0  0  0
    0.0000   -4.9500    0.0000 C   0  0  0  0  0  0  0  0  0  0  0  0
   -0.7145   -5.3625    0.0000 C   0  0  0  0  0  0  0  0  0  0  0  0
   -1.4289   -4.9500    0.0000 C   0  0  0  0  0  0  0  0  0  0  0  0
   -1.4289   -4.1250    0.0000 C   0  0  0  0  0  0  0  0  0  0  0  0
   -2.1434   -3.7125    0.0000 Cl  0  0  0  0  0  0  0  0  0  0  0  0
   -0.7145   -3.7125    0.0000 C   0  0  0  0  0  0  0  0  0  0  0  0
   -0.7145   -2.8875    0.0000 H   0  0  0  0  0  0  0  0  0  0  0  0
    0.0000   -4.1250    0.0000 C   0  0  0  0  0  0  0  0  0  0  0  0
    0.7145   -3.7125    0.0000 C   0  0  0  0  0  0  0  0  0  0  0  0
    0.7145   -2.8875    0.0000 C   0  0  0  0  0  0  0  0  0  0  0  0
    0.0000   -2.4750    0.0000 O   0  0  0  0  0  0  0  0  0  0  0  0
    1.4289   -2.4750    0.0000 N   0  0  0  0  0  0  0  0  0  0  0  0
    1.4289   -1.6500    0.0000 C   0  0  0  0  0  0  0  0  0  0  0  0
    0.7145   -1.2375    0.0000 C   0  0  0  0  0  0  0  0  0  0  0  0
    0.0000   -1.6500    0.0000 H   0  0  0  0  0  0  0  0  0  0  0  0
    0.7145   -0.4125    0.0000 N   0  0  0  0  0  0  0  0  0  0  0  0
    1.4289    0.0000    0.0000 C   0  0  0  0  0  0  0  0  0  0  0  0
    1.4289    0.8250    0.0000 H   0  0  0  0  0  0  0  0  0  0  0  0
    2.1434   -0.4125    0.0000 C   0  0  0  0  0  0  0  0  0  0  0  0
    2.8579    0.0000    0.0000 C   0  0  0  0  0  0  0  0  0  0  0  0
    3.5724   -0.4125    0.0000 C   0  0  0  0  0  0  0  0  0  0  0  0
    3.5724   -1.2375    0.0000 C   0  0  0  0  0  0  0  0  0  0  0  0
    2.8579   -1.6500    0.0000 C   0  0  0  0  0  0  0  0  0  0  0  0
    2.8579   -2.4750    0.0000 H   0  0  0  0  0  0  0  0  0  0  0  0
    2.1434   -1.2375    0.0000 C   0  0  0  0  0  0  0  0  0  0  0  0
    4.2868   -1.6500    0.0000 H   0  0  0  0  0  0  0  0  0  0  0  0
    4.2868   -0.0000    0.0000 H   0  0  0  0  0  0  0  0  0  0  0  0
    2.8579    0.8250    0.0000 H   0  0  0  0  0  0  0  0  0  0  0  0
    2.2539   -2.4750    0.0000 H   0  0  0  0  0  0  0  0  0  0  0  0
    1.4289   -3.3000    0.0000 H   0  0  0  0  0  0  0  0  0  0  0  0
    1.4289   -4.1250    0.0000 C   0  0  0  0  0  0  0  0  0  0  0  0
    2.2042   -4.4072    0.0000 H   0  0  0  0  0  0  0  0  0  0  0  0
    2.2042   -3.8428    0.0000 H   0  0  0  0  0  0  0  0  0  0  0  0
   -2.1434   -5.3625    0.0000 H   0  0  0  0  0  0  0  0  0  0  0  0
   -0.7145   -6.1875    0.0000 H   0  0  0  0  0  0  0  0  0  0  0  0
    3.8504   -7.2021    0.0000 H   0  0  0  0  0  0  0  0  0  0  0  0
    4.3801   -6.1625    0.0000 H   0  0  0  0  0  0  0  0  0  0  0  0
    3.3405   -5.6329    0.0000 H   0  0  0  0  0  0  0  0  0  0  0  0
  1  2  1  0  0  0  0
  2  3  1  0  0  0  0
  3  4  2  0  0  0  0
  4  5  1  0  0  0  0
  5  6  1  0  0  0  0
  5  7  2  0  0  0  0
  2  7  1  0  0  0  0
  7  8  1  0  0  0  0
  8  9  2  0  0  0  0
  8 10  1  0  0  0  0
 10 11  1  0  0  0  0
 11 12  1  0  0  0  0
 11 13  1  0  0  0  0
 11 14  1  0  0  0  0
 14 15  2  0  0  0  0
 15 16  1  0  0  0  0
 16 17  2  0  0  0  0
 17 18  1  0  0  0  0
 17 19  1  0  0  0  0
 19 20  1  0  0  0  0
 19 21  2  0  0  0  0
 14 21  1  0  0  0  0
 21 22  1  0  0  0  0
 22 23  1  0  0  0  0
 23 24  2  0  0  0  0
 23 25  1  0  0  0  0
 25 26  1  0  0  0  0
 26 27  2  0  0  0  0
 27 28  1  0  0  0  0
 27 29  1  0  0  0  0
 29 30  2  0  0  0  0
 30 31  1  0  0  0  0
 30 32  1  0  0  0  0
 32 33  2  0  0  0  0
 33 34  1  0  0  0  0
 34 35  2  0  0  0  0
 35 36  1  0  0  0  0
 36 37  1  0  0  0  0
 36 38  2  0  0  0  0
 26 38  1  0  0  0  0
 32 38  1  0  0  0  0
 35 39  1  0  0  0  0
 34 40  1  0  0  0  0
 33 41  1  0  0  0  0
 25 42  1  0  0  0  0
 22 43  1  0  0  0  0
 22 44  1  0  0  0  0
 10 44  1  0  0  0  0
 44 45  1  0  0  0  0
 44 46  1  0  0  0  0
 16 47  1  0  0  0  0
 15 48  1  0  0  0  0
  1 49  1  0  0  0  0
  1 50  1  0  0  0  0
  1 51  1  0  0  0  0
M  END
> <Potency>
0.397156472415711

> <pIC50>
6.401038355407116

> <Outcome>
Active

> <is_active>
1

$$$$

  Mrv1921 08232120312D          

 64 68  0  0  0  0            999 V2000
    2.8579   -2.4750    0.0000 O   0  0  0  0  0  0  0  0  0  0  0  0
    2.1434   -2.8875    0.0000 C   0  0  0  0  0  0  0  0  0  0  0  0
    1.4289   -2.4750    0.0000 N   0  0  0  0  0  0  0  0  0  0  0  0
    1.4289   -1.6500    0.0000 C   0  0  0  0  0  0  0  0  0  0  0  0
    0.7145   -1.2375    0.0000 C   0  0  0  0  0  0  0  0  0  0  0  0
    0.0000   -1.6500    0.0000 H   0  0  0  0  0  0  0  0  0  0  0  0
    0.7145   -0.4125    0.0000 N   0  0  0  0  0  0  0  0  0  0  0  0
    1.4289    0.0000    0.0000 C   0  0  0  0  0  0  0  0  0  0  0  0
    1.4289    0.8250    0.0000 H   0  0  0  0  0  0  0  0  0  0  0  0
    2.1434   -0.4125    0.0000 C   0  0  0  0  0  0  0  0  0  0  0  0
    2.8579    0.0000    0.0000 C   0  0  0  0  0  0  0  0  0  0  0  0
    3.5724   -0.4125    0.0000 C   0  0  0  0  0  0  0  0  0  0  0  0
    3.5724   -1.2375    0.0000 C   0  0  0  0  0  0  0  0  0  0  0  0
    2.8579   -1.6500    0.0000 C   0  0  0  0  0  0  0  0  0  0  0  0
    2.1434   -2.0625    0.0000 H   0  0  0  0  0  0  0  0  0  0  0  0
    2.1434   -1.2375    0.0000 C   0  0  0  0  0  0  0  0  0  0  0  0
    4.2868   -1.6500    0.0000 H   0  0  0  0  0  0  0  0  0  0  0  0
    4.2868   -0.0000    0.0000 H   0  0  0  0  0  0  0  0  0  0  0  0
    2.8579    0.8250    0.0000 H   0  0  0  0  0  0  0  0  0  0  0  0
    0.7145   -2.8875    0.0000 H   0  0  0  0  0  0  0  0  0  0  0  0
    2.1434   -3.7125    0.0000 C   0  0  0  0  0  0  0  0  0  0  0  0
    2.8579   -4.1250    0.0000 N   0  0  0  0  0  0  0  0  0  0  0  0
    2.8579   -4.9500    0.0000 C   0  0  0  0  0  0  0  0  0  0  0  0
    3.5724   -5.3625    0.0000 C   0  0  0  0  0  0  0  0  0  0  0  0
    4.3260   -5.0269    0.0000 C   0  0  0  0  0  0  0  0  0  0  0  0
    4.8563   -4.3950    0.0000 H   0  0  0  0  0  0  0  0  0  0  0  0
    4.0986   -4.2339    0.0000 H   0  0  0  0  0  0  0  0  0  0  0  0
    4.8781   -5.6400    0.0000 C   0  0  0  0  0  0  0  0  0  0  0  0
    5.6430   -5.9491    0.0000 H   0  0  0  0  0  0  0  0  0  0  0  0
    5.5620   -5.1787    0.0000 H   0  0  0  0  0  0  0  0  0  0  0  0
    4.4656   -6.3545    0.0000 C   0  0  0  0  0  0  0  0  0  0  0  0
    4.8011   -7.1082    0.0000 C   0  0  0  0  0  0  0  0  0  0  0  0
    5.6216   -7.1944    0.0000 O   0  0  0  0  0  0  0  0  0  0  0  0
    4.3162   -7.7756    0.0000 N   0  0  0  0  0  0  0  0  0  0  0  0
    4.5711   -8.5602    0.0000 C   0  0  0  0  0  0  0  0  0  0  0  0
    5.1442   -9.1537    0.0000 H   0  0  0  0  0  0  0  0  0  0  0  0
    5.3836   -8.4170    0.0000 H   0  0  0  0  0  0  0  0  0  0  0  0
    3.9037   -9.0452    0.0000 C   0  0  0  0  0  0  0  0  0  0  0  0
    3.5164   -9.7736    0.0000 H   0  0  0  0  0  0  0  0  0  0  0  0
    4.2910   -9.7736    0.0000 H   0  0  0  0  0  0  0  0  0  0  0  0
    3.2363   -8.5602    0.0000 C   0  0  0  0  0  0  0  0  0  0  0  0
    2.4238   -8.4170    0.0000 H   0  0  0  0  0  0  0  0  0  0  0  0
    2.6632   -9.1537    0.0000 H   0  0  0  0  0  0  0  0  0  0  0  0
    3.4912   -7.7756    0.0000 C   0  0  0  0  0  0  0  0  0  0  0  0
    2.9129   -7.1872    0.0000 H   0  0  0  0  0  0  0  0  0  0  0  0
    2.6672   -7.7357    0.0000 H   0  0  0  0  0  0  0  0  0  0  0  0
    3.9464   -6.9957    0.0000 H   0  0  0  0  0  0  0  0  0  0  0  0
    3.6586   -6.1830    0.0000 O   0  0  0  0  0  0  0  0  0  0  0  0
    2.8805   -5.8118    0.0000 H   0  0  0  0  0  0  0  0  0  0  0  0
    2.0343   -4.9980    0.0000 H   0  0  0  0  0  0  0  0  0  0  0  0
    2.4045   -5.6393    0.0000 H   0  0  0  0  0  0  0  0  0  0  0  0
    3.6829   -4.1250    0.0000 H   0  0  0  0  0  0  0  0  0  0  0  0
    1.4289   -4.1250    0.0000 C   0  0  0  0  0  0  0  0  0  0  0  0
    1.4289   -4.9500    0.0000 C   0  0  0  0  0  0  0  0  0  0  0  0
    1.6108   -5.7547    0.0000 H   0  0  0  0  0  0  0  0  0  0  0  0
    0.7145   -5.3625    0.0000 C   0  0  0  0  0  0  0  0  0  0  0  0
    0.7145   -6.1875    0.0000 H   0  0  0  0  0  0  0  0  0  0  0  0
    0.0000   -4.9500    0.0000 C   0  0  0  0  0  0  0  0  0  0  0  0
   -0.7145   -5.3625    0.0000 H   0  0  0  0  0  0  0  0  0  0  0  0
    0.0000   -4.1250    0.0000 C   0  0  0  0  0  0  0  0  0  0  0  0
   -0.7145   -3.7125    0.0000 Cl  0  0  0  0  0  0  0  0  0  0  0  0
    0.7145   -3.7125    0.0000 C   0  0  0  0  0  0  0  0  0  0  0  0
    1.4289   -3.3000    0.0000 H   0  0  0  0  0  0  0  0  0  0  0  0
    2.8579   -3.3000    0.0000 H   0  0  0  0  0  0  0  0  0  0  0  0
  1  2  2  0  0  0  0
  2  3  1  0  0  0  0
  3  4  1  0  0  0  0
  4  5  2  0  0  0  0
  5  6  1  0  0  0  0
  5  7  1  0  0  0  0
  7  8  2  0  0  0  0
  8  9  1  0  0  0  0
  8 10  1  0  0  0  0
 10 11  2  0  0  0  0
 11 12  1  0  0  0  0
 12 13  2  0  0  0  0
 13 14  1  0  0  0  0
 14 15  1  0  0  0  0
 14 16  2  0  0  0  0
  4 16  1  0  0  0  0
 10 16  1  0  0  0  0
 13 17  1  0  0  0  0
 12 18  1  0  0  0  0
 11 19  1  0  0  0  0
  3 20  1  0  0  0  0
  2 21  1  0  0  0  0
 21 22  1  0  0  0  0
 22 23  1  0  0  0  0
 23 24  1  0  0  0  0
 24 25  1  0  0  0  0
 25 26  1  0  0  0  0
 25 27  1  0  0  0  0
 25 28  1  0  0  0  0
 28 29  1  0  0  0  0
 28 30  1  0  0  0  0
 28 31  1  0  0  0  0
 31 32  1  0  0  0  0
 32 33  2  0  0  0  0
 32 34  1  0  0  0  0
 34 35  1  0  0  0  0
 35 36  1  0  0  0  0
 35 37  1  0  0  0  0
 35 38  1  0  0  0  0
 38 39  1  0  0  0  0
 38 40  1  0  0  0  0
 38 41  1  0  0  0  0
 41 42  1  0  0  0  0
 41 43  1  0  0  0  0
 41 44  1  0  0  0  0
 34 44  1  0  0  0  0
 44 45  1  0  0  0  0
 44 46  1  0  0  0  0
 31 47  1  0  0  0  0
 31 48  1  0  0  0  0
 24 48  1  0  0  0  0
 24 49  1  0  0  0  0
 23 50  1  0  0  0  0
 23 51  1  0  0  0  0
 22 52  1  0  0  0  0
 21 53  1  0  0  0  0
 53 54  2  0  0  0  0
 54 55  1  0  0  0  0
 54 56  1  0  0  0  0
 56 57  1  0  0  0  0
 56 58  2  0  0  0  0
 58 59  1  0  0  0  0
 58 60  1  0  0  0  0
 60 61  1  0  0  0  0
 60 62  2  0  0  0  0
 53 62  1  0  0  0  0
 62 63  1  0  0  0  0
 21 64  1  0  0  0  0
M  END
> <Potency>
2.76965459297664

> <pIC50>
5.557574388956392

> <Outcome>
Active

> <is_active>
1

$$$$

  Mrv1921 08232120312D          

 56 59  0  0  0  0            999 V2000
    3.5724   -1.2375    0.0000 O   0  0  0  0  0  0  0  0  0  0  0  0
    3.5724   -0.4125    0.0000 C   0  0  0  0  0  0  0  0  0  0  0  0
    2.8579    0.0000    0.0000 C   0  0  0  0  0  0  0  0  0  0  0  0
    2.1434   -0.4125    0.0000 C   0  0  0  0  0  0  0  0  0  0  0  0
    2.1434   -1.2375    0.0000 C   0  0  0  0  0  0  0  0  0  0  0  0
    2.8579   -1.6500    0.0000 H   0  0  0  0  0  0  0  0  0  0  0  0
    1.4289   -1.6500    0.0000 N   0  0  0  0  0  0  0  0  0  0  0  0
    0.7145   -1.2375    0.0000 C   0  0  0  0  0  0  0  0  0  0  0  0
    0.0000   -1.6500    0.0000 H   0  0  0  0  0  0  0  0  0  0  0  0
    0.7145   -0.4125    0.0000 C   0  0  0  0  0  0  0  0  0  0  0  0
   -0.0000    0.0000    0.0000 C   0  0  0  0  0  0  0  0  0  0  0  0
    0.0000    0.8250    0.0000 C   0  0  0  0  0  0  0  0  0  0  0  0
    0.7145    1.2375    0.0000 C   0  0  0  0  0  0  0  0  0  0  0  0
    1.4289    0.8250    0.0000 C   0  0  0  0  0  0  0  0  0  0  0  0
    2.1434    1.2375    0.0000 H   0  0  0  0  0  0  0  0  0  0  0  0
    1.4289    0.0000    0.0000 C   0  0  0  0  0  0  0  0  0  0  0  0
    0.7145    2.0625    0.0000 H   0  0  0  0  0  0  0  0  0  0  0  0
   -0.7145    1.2375    0.0000 H   0  0  0  0  0  0  0  0  0  0  0  0
   -0.7145   -0.4125    0.0000 H   0  0  0  0  0  0  0  0  0  0  0  0
    3.2281    0.7372    0.0000 H   0  0  0  0  0  0  0  0  0  0  0  0
    2.4876    0.7372    0.0000 H   0  0  0  0  0  0  0  0  0  0  0  0
    4.2868    0.0000    0.0000 N   0  0  0  0  0  0  0  0  0  0  0  0
    5.0013   -0.4125    0.0000 C   0  0  0  0  0  0  0  0  0  0  0  0
    5.7158    0.0000    0.0000 C   0  0  0  0  0  0  0  0  0  0  0  0
    6.4302   -0.4125    0.0000 C   0  0  0  0  0  0  0  0  0  0  0  0
    7.1447    0.0000    0.0000 C   0  0  0  0  0  0  0  0  0  0  0  0
    7.7767    0.5303    0.0000 H   0  0  0  0  0  0  0  0  0  0  0  0
    7.2880    0.8125    0.0000 H   0  0  0  0  0  0  0  0  0  0  0  0
    7.8592   -0.4125    0.0000 C   0  0  0  0  0  0  0  0  0  0  0  0
    8.6436   -0.6682    0.0000 H   0  0  0  0  0  0  0  0  0  0  0  0
    8.6183   -0.0894    0.0000 H   0  0  0  0  0  0  0  0  0  0  0  0
    7.8592   -1.2375    0.0000 C   0  0  0  0  0  0  0  0  0  0  0  0
    8.0352   -2.0435    0.0000 H   0  0  0  0  0  0  0  0  0  0  0  0
    8.5236   -1.7265    0.0000 H   0  0  0  0  0  0  0  0  0  0  0  0
    7.1447   -1.6500    0.0000 C   0  0  0  0  0  0  0  0  0  0  0  0
    6.7745   -2.3872    0.0000 H   0  0  0  0  0  0  0  0  0  0  0  0
    7.5150   -2.3872    0.0000 H   0  0  0  0  0  0  0  0  0  0  0  0
    6.4302   -1.2375    0.0000 C   0  0  0  0  0  0  0  0  0  0  0  0
    5.7983   -1.7678    0.0000 H   0  0  0  0  0  0  0  0  0  0  0  0
    6.2870   -2.0500    0.0000 H   0  0  0  0  0  0  0  0  0  0  0  0
    6.4302    0.4125    0.0000 H   0  0  0  0  0  0  0  0  0  0  0  0
    5.0104    0.4279    0.0000 H   0  0  0  0  0  0  0  0  0  0  0  0
    5.7158   -0.8250    0.0000 H   0  0  0  0  0  0  0  0  0  0  0  0
    4.6310   -1.1497    0.0000 H   0  0  0  0  0  0  0  0  0  0  0  0
    5.3716   -1.1497    0.0000 H   0  0  0  0  0  0  0  0  0  0  0  0
    4.2868    0.8250    0.0000 C   0  0  0  0  0  0  0  0  0  0  0  0
    5.0013    1.2375    0.0000 C   0  0  0  0  0  0  0  0  0  0  0  0
    5.0875    2.0580    0.0000 C   0  0  0  0  0  0  0  0  0  0  0  0
    4.4744    2.6100    0.0000 H   0  0  0  0  0  0  0  0  0  0  0  0
    5.8945    2.2295    0.0000 C   0  0  0  0  0  0  0  0  0  0  0  0
    6.2301    2.9832    0.0000 H   0  0  0  0  0  0  0  0  0  0  0  0
    6.3070    1.5150    0.0000 C   0  0  0  0  0  0  0  0  0  0  0  0
    7.1275    1.4288    0.0000 H   0  0  0  0  0  0  0  0  0  0  0  0
    5.7550    0.9019    0.0000 S   0  0  0  0  0  0  0  0  0  0  0  0
    3.8335    1.5143    0.0000 H   0  0  0  0  0  0  0  0  0  0  0  0
    3.4632    0.8730    0.0000 H   0  0  0  0  0  0  0  0  0  0  0  0
  1  2  2  0  0  0  0
  2  3  1  0  0  0  0
  3  4  1  0  0  0  0
  4  5  2  0  0  0  0
  5  6  1  0  0  0  0
  5  7  1  0  0  0  0
  7  8  2  0  0  0  0
  8  9  1  0  0  0  0
  8 10  1  0  0  0  0
 10 11  2  0  0  0  0
 11 12  1  0  0  0  0
 12 13  2  0  0  0  0
 13 14  1  0  0  0  0
 14 15  1  0  0  0  0
 14 16  2  0  0  0  0
  4 16  1  0  0  0  0
 10 16  1  0  0  0  0
 13 17  1  0  0  0  0
 12 18  1  0  0  0  0
 11 19  1  0  0  0  0
  3 20  1  0  0  0  0
  3 21  1  0  0  0  0
  2 22  1  0  0  0  0
 22 23  1  0  0  0  0
 23 24  1  0  0  0  0
 24 25  1  0  0  0  0
 25 26  1  0  0  0  0
 26 27  1  0  0  0  0
 26 28  1  0  0  0  0
 26 29  1  0  0  0  0
 29 30  1  0  0  0  0
 29 31  1  0  0  0  0
 29 32  1  0  0  0  0
 32 33  1  0  0  0  0
 32 34  1  0  0  0  0
 32 35  1  0  0  0  0
 35 36  1  0  0  0  0
 35 37  1  0  0  0  0
 35 38  1  0  0  0  0
 25 38  1  0  0  0  0
 38 39  1  0  0  0  0
 38 40  1  0  0  0  0
 25 41  1  0  0  0  0
 24 42  1  0  0  0  0
 24 43  1  0  0  0  0
 23 44  1  0  0  0  0
 23 45  1  0  0  0  0
 22 46  1  0  0  0  0
 46 47  1  0  0  0  0
 47 48  2  0  0  0  0
 48 49  1  0  0  0  0
 48 50  1  0  0  0  0
 50 51  1  0  0  0  0
 50 52  2  0  0  0  0
 52 53  1  0  0  0  0
 52 54  1  0  0  0  0
 47 54  1  0  0  0  0
 46 55  1  0  0  0  0
 46 56  1  0  0  0  0
M  END
> <Potency>
9.8611344907795

> <pIC50>
5.006073118046386

> <Outcome>
Active

> <is_active>
1

$$$$

  Mrv1921 08232120312D          

 40 42  0  0  0  0            999 V2000
    1.4289    2.4750    0.0000 C   0  0  0  0  0  0  0  0  0  0  0  0
    2.1434    2.0625    0.0000 C   0  0  0  0  0  0  0  0  0  0  0  0
    2.8579    2.4750    0.0000 C   0  0  0  0  0  0  0  0  0  0  0  0
    2.8579    3.3000    0.0000 H   0  0  0  0  0  0  0  0  0  0  0  0
    3.5724    2.0625    0.0000 C   0  0  0  0  0  0  0  0  0  0  0  0
    4.2868    2.4750    0.0000 H   0  0  0  0  0  0  0  0  0  0  0  0
    3.5724    1.2375    0.0000 C   0  0  0  0  0  0  0  0  0  0  0  0
    4.2868    0.8250    0.0000 H   0  0  0  0  0  0  0  0  0  0  0  0
    2.8579    0.8250    0.0000 C   0  0  0  0  0  0  0  0  0  0  0  0
    2.8579   -0.0000    0.0000 H   0  0  0  0  0  0  0  0  0  0  0  0
    2.1434    1.2375    0.0000 C   0  0  0  0  0  0  0  0  0  0  0  0
    1.4289    0.8250    0.0000 N   0  0  0  0  0  0  0  0  0  0  0  0
    1.4289   -0.0000    0.0000 C   0  0  0  0  0  0  0  0  0  0  0  0
    2.1434   -0.4125    0.0000 O   0  0  0  0  0  0  0  0  0  0  0  0
    0.7145   -0.4125    0.0000 C   0  0  0  0  0  0  0  0  0  0  0  0
    0.7145   -1.2375    0.0000 C   0  0  0  0  0  0  0  0  0  0  0  0
    1.3819   -1.7224    0.0000 S   0  0  0  0  0  0  0  0  0  0  0  0
    1.1270   -2.5070    0.0000 C   0  0  0  0  0  0  0  0  0  0  0  0
    1.6119   -3.1745    0.0000 O   0  0  0  0  0  0  0  0  0  0  0  0
    0.3020   -2.5070    0.0000 N   0  0  0  0  0  0  0  0  0  0  0  0
   -0.1830   -3.1745    0.0000 C   0  0  0  0  0  0  0  0  0  0  0  0
    0.1526   -3.9282    0.0000 C   0  0  0  0  0  0  0  0  0  0  0  0
    0.9731   -4.0144    0.0000 H   0  0  0  0  0  0  0  0  0  0  0  0
   -0.3323   -4.5956    0.0000 C   0  0  0  0  0  0  0  0  0  0  0  0
    0.0032   -5.3493    0.0000 H   0  0  0  0  0  0  0  0  0  0  0  0
   -1.1528   -4.5094    0.0000 C   0  0  0  0  0  0  0  0  0  0  0  0
   -1.6377   -5.1768    0.0000 H   0  0  0  0  0  0  0  0  0  0  0  0
   -1.4884   -3.7557    0.0000 C   0  0  0  0  0  0  0  0  0  0  0  0
   -2.3088   -3.6695    0.0000 H   0  0  0  0  0  0  0  0  0  0  0  0
   -1.0034   -3.0882    0.0000 C   0  0  0  0  0  0  0  0  0  0  0  0
   -1.3390   -2.3346    0.0000 H   0  0  0  0  0  0  0  0  0  0  0  0
    0.0470   -1.7224    0.0000 C   0  0  0  0  0  0  0  0  0  0  0  0
   -0.7376   -1.4675    0.0000 O   0  0  0  0  0  0  0  0  0  0  0  0
   -0.0206   -0.8630    0.0000 H   0  0  0  0  0  0  0  0  0  0  0  0
    0.2611    0.2768    0.0000 H   0  0  0  0  0  0  0  0  0  0  0  0
   -0.1091   -0.3645    0.0000 H   0  0  0  0  0  0  0  0  0  0  0  0
    0.7145    1.2375    0.0000 H   0  0  0  0  0  0  0  0  0  0  0  0
    1.8414    3.1895    0.0000 H   0  0  0  0  0  0  0  0  0  0  0  0
    0.7145    2.8875    0.0000 H   0  0  0  0  0  0  0  0  0  0  0  0
    1.0164    1.7605    0.0000 H   0  0  0  0  0  0  0  0  0  0  0  0
  1  2  1  0  0  0  0
  2  3  2  0  0  0  0
  3  4  1  0  0  0  0
  3  5  1  0  0  0  0
  5  6  1  0  0  0  0
  5  7  2  0  0  0  0
  7  8  1  0  0  0  0
  7  9  1  0  0  0  0
  9 10  1  0  0  0  0
  9 11  2  0  0  0  0
  2 11  1  0  0  0  0
 11 12  1  0  0  0  0
 12 13  1  0  0  0  0
 13 14  2  0  0  0  0
 13 15  1  0  0  0  0
 15 16  1  0  0  0  0
 16 17  1  0  0  0  0
 17 18  1  0  0  0  0
 18 19  2  0  0  0  0
 18 20  1  0  0  0  0
 20 21  1  0  0  0  0
 21 22  2  0  0  0  0
 22 23  1  0  0  0  0
 22 24  1  0  0  0  0
 24 25  1  0  0  0  0
 24 26  2  0  0  0  0
 26 27  1  0  0  0  0
 26 28  1  0  0  0  0
 28 29  1  0  0  0  0
 28 30  2  0  0  0  0
 21 30  1  0  0  0  0
 30 31  1  0  0  0  0
 20 32  1  0  0  0  0
 16 32  1  0  0  0  0
 32 33  2  0  0  0  0
 16 34  1  0  0  0  0
 15 35  1  0  0  0  0
 15 36  1  0  0  0  0
 12 37  1  0  0  0  0
  1 38  1  0  0  0  0
  1 39  1  0  0  0  0
  1 40  1  0  0  0  0
M  END
> <Potency>
0.443178538136843

> <pIC50>
6.353421279404233

> <Outcome>
Active

> <is_active>
1

$$$$

  Mrv1921 08232120312D          

 71 76  0  0  0  0            999 V2000
   -4.6620   -2.2899    0.0000 C   0  0  0  0  0  0  0  0  0  0  0  0
   -3.8615   -2.4895    0.0000 O   0  0  0  0  0  0  0  0  0  0  0  0
   -3.2884   -1.8961    0.0000 C   0  0  0  0  0  0  0  0  0  0  0  0
   -3.5158   -1.1030    0.0000 O   0  0  0  0  0  0  0  0  0  0  0  0
   -2.4879   -2.0957    0.0000 C   0  0  0  0  0  0  0  0  0  0  0  0
   -1.9149   -1.5022    0.0000 C   0  0  0  0  0  0  0  0  0  0  0  0
   -2.1423   -0.7092    0.0000 H   0  0  0  0  0  0  0  0  0  0  0  0
   -1.1144   -1.7018    0.0000 N   0  0  0  0  0  0  0  0  0  0  0  0
   -0.8870   -2.4948    0.0000 C   0  0  0  0  0  0  0  0  0  0  0  0
   -0.0865   -2.6944    0.0000 C   0  0  0  0  0  0  0  0  0  0  0  0
    0.4866   -2.1010    0.0000 N   0  0  0  0  0  0  0  0  0  0  0  0
    0.3434   -1.2885    0.0000 C   0  0  0  0  0  0  0  0  0  0  0  0
   -0.3981   -0.9268    0.0000 H   0  0  0  0  0  0  0  0  0  0  0  0
    1.0718   -0.9012    0.0000 C   0  0  0  0  0  0  0  0  0  0  0  0
    1.1866   -0.0842    0.0000 H   0  0  0  0  0  0  0  0  0  0  0  0
    1.6653   -1.4743    0.0000 C   0  0  0  0  0  0  0  0  0  0  0  0
    2.4777   -1.3310    0.0000 C   0  0  0  0  0  0  0  0  0  0  0  0
    2.7599   -0.5558    0.0000 N   0  0  0  0  0  0  0  0  0  0  0  0
    3.5724   -0.4125    0.0000 C   0  0  0  0  0  0  0  0  0  0  0  0
    4.1027   -1.0445    0.0000 C   0  0  0  0  0  0  0  0  0  0  0  0
    4.6330   -0.4125    0.0000 C   0  0  0  0  0  0  0  0  0  0  0  0
    5.4454   -0.5558    0.0000 O   0  0  0  0  0  0  0  0  0  0  0  0
    4.3508    0.3627    0.0000 N   0  0  0  0  0  0  0  0  0  0  0  0
    3.5383    0.5060    0.0000 C   0  0  0  0  0  0  0  0  0  0  0  0
    3.0080   -0.1260    0.0000 C   0  0  0  0  0  0  0  0  0  0  0  0
    2.7259    0.6493    0.0000 H   0  0  0  0  0  0  0  0  0  0  0  0
    2.1956    0.0173    0.0000 N   0  0  0  0  0  0  0  0  0  0  0  0
    1.9134    0.7925    0.0000 C   0  0  0  0  0  0  0  0  0  0  0  0
    1.1009    0.9358    0.0000 H   0  0  0  0  0  0  0  0  0  0  0  0
    2.4437    1.4245    0.0000 C   0  0  0  0  0  0  0  0  0  0  0  0
    2.1615    2.1998    0.0000 C   0  0  0  0  0  0  0  0  0  0  0  0
    2.6918    2.8317    0.0000 C   0  0  0  0  0  0  0  0  0  0  0  0
    3.5043    2.6885    0.0000 C   0  0  0  0  0  0  0  0  0  0  0  0
    3.7865    1.9132    0.0000 C   0  0  0  0  0  0  0  0  0  0  0  0
    4.5989    1.7700    0.0000 H   0  0  0  0  0  0  0  0  0  0  0  0
    3.2562    1.2813    0.0000 C   0  0  0  0  0  0  0  0  0  0  0  0
    4.0346    3.3205    0.0000 H   0  0  0  0  0  0  0  0  0  0  0  0
    2.4097    3.6070    0.0000 H   0  0  0  0  0  0  0  0  0  0  0  0
    1.3491    2.3430    0.0000 H   0  0  0  0  0  0  0  0  0  0  0  0
    4.8811    0.9947    0.0000 H   0  0  0  0  0  0  0  0  0  0  0  0
    3.3882   -1.4570    0.0000 C   0  0  0  0  0  0  0  0  0  0  0  0
    4.1027   -1.8695    0.0000 H   0  0  0  0  0  0  0  0  0  0  0  0
    3.6704   -0.6817    0.0000 H   0  0  0  0  0  0  0  0  0  0  0  0
    3.3882   -2.2820    0.0000 C   0  0  0  0  0  0  0  0  0  0  0  0
    2.7089   -2.7502    0.0000 H   0  0  0  0  0  0  0  0  0  0  0  0
    3.4211   -3.1063    0.0000 H   0  0  0  0  0  0  0  0  0  0  0  0
    4.1027   -2.6945    0.0000 O   0  0  0  0  0  0  0  0  0  0  0  0
    4.8171   -2.2820    0.0000 C   0  0  0  0  0  0  0  0  0  0  0  0
    5.5316   -2.6945    0.0000 C   0  0  0  0  0  0  0  0  0  0  0  0
    6.2461   -2.2820    0.0000 C   0  0  0  0  0  0  0  0  0  0  0  0
    6.2461   -1.4570    0.0000 C   0  0  0  0  0  0  0  0  0  0  0  0
    6.9605   -1.0445    0.0000 Cl  0  0  0  0  0  0  0  0  0  0  0  0
    5.5316   -1.0445    0.0000 C   0  0  0  0  0  0  0  0  0  0  0  0
    6.2074   -0.5713    0.0000 H   0  0  0  0  0  0  0  0  0  0  0  0
    4.8171   -1.4570    0.0000 C   0  0  0  0  0  0  0  0  0  0  0  0
    6.9605   -2.6945    0.0000 H   0  0  0  0  0  0  0  0  0  0  0  0
    5.5316   -3.5195    0.0000 H   0  0  0  0  0  0  0  0  0  0  0  0
    4.3422   -0.1160    0.0000 H   0  0  0  0  0  0  0  0  0  0  0  0
    3.2902   -1.1877    0.0000 H   0  0  0  0  0  0  0  0  0  0  0  0
    1.9538   -0.7312    0.0000 H   0  0  0  0  0  0  0  0  0  0  0  0
    2.1166   -2.0728    0.0000 H   0  0  0  0  0  0  0  0  0  0  0  0
    2.8661   -2.0589    0.0000 H   0  0  0  0  0  0  0  0  0  0  0  0
    1.3036   -2.2158    0.0000 N   0  0  0  0  0  0  0  0  0  0  0  0
   -0.2392   -3.5052    0.0000 H   0  0  0  0  0  0  0  0  0  0  0  0
    0.4727   -3.3010    0.0000 H   0  0  0  0  0  0  0  0  0  0  0  0
   -1.4601   -3.0883    0.0000 C   0  0  0  0  0  0  0  0  0  0  0  0
   -1.2327   -3.8813    0.0000 H   0  0  0  0  0  0  0  0  0  0  0  0
   -2.2605   -2.8887    0.0000 N   0  0  0  0  0  0  0  0  0  0  0  0
   -4.4624   -1.4894    0.0000 H   0  0  0  0  0  0  0  0  0  0  0  0
   -5.4625   -2.0904    0.0000 H   0  0  0  0  0  0  0  0  0  0  0  0
   -4.8616   -3.0904    0.0000 H   0  0  0  0  0  0  0  0  0  0  0  0
  1  2  1  0  0  0  0
  2  3  1  0  0  0  0
  3  4  2  0  0  0  0
  3  5  1  0  0  0  0
  5  6  1  0  0  0  0
  6  7  1  0  0  0  0
  6  8  2  0  0  0  0
  8  9  1  0  0  0  0
  9 10  1  0  0  0  0
 10 11  1  0  0  0  0
 11 12  1  0  0  0  0
 12 13  1  0  0  0  0
 12 14  2  0  0  0  0
 14 15  1  0  0  0  0
 14 16  1  0  0  0  0
 16 17  1  0  0  0  0
 17 18  1  0  0  0  0
 18 19  1  0  0  0  0
 19 20  1  0  0  0  0
 20 21  1  0  0  0  0
 21 22  2  0  0  0  0
 21 23  1  0  0  0  0
 23 24  1  0  0  0  0
 24 25  2  0  0  0  0
 25 26  1  0  0  0  0
 25 27  1  0  0  0  0
 27 28  2  0  0  0  0
 28 29  1  0  0  0  0
 28 30  1  0  0  0  0
 30 31  2  0  0  0  0
 31 32  1  0  0  0  0
 32 33  2  0  0  0  0
 33 34  1  0  0  0  0
 34 35  1  0  0  0  0
 34 36  2  0  0  0  0
 24 36  1  0  0  0  0
 30 36  1  0  0  0  0
 33 37  1  0  0  0  0
 32 38  1  0  0  0  0
 31 39  1  0  0  0  0
 23 40  1  0  0  0  0
 20 41  1  0  0  0  0
 41 42  1  0  0  0  0
 41 43  1  0  0  0  0
 41 44  1  0  0  0  0
 44 45  1  0  0  0  0
 44 46  1  0  0  0  0
 44 47  1  0  0  0  0
 47 48  1  0  0  0  0
 48 49  2  0  0  0  0
 49 50  1  0  0  0  0
 50 51  2  0  0  0  0
 51 52  1  0  0  0  0
 51 53  1  0  0  0  0
 53 54  1  0  0  0  0
 53 55  2  0  0  0  0
 20 55  1  0  0  0  0
 48 55  1  0  0  0  0
 50 56  1  0  0  0  0
 49 57  1  0  0  0  0
 19 58  1  0  0  0  0
 19 59  1  0  0  0  0
 18 60  1  0  0  0  0
 17 61  1  0  0  0  0
 17 62  1  0  0  0  0
 16 63  2  0  0  0  0
 11 63  1  0  0  0  0
 10 64  1  0  0  0  0
 10 65  1  0  0  0  0
  9 66  2  0  0  0  0
 66 67  1  0  0  0  0
 66 68  1  0  0  0  0
  5 68  2  0  0  0  0
  1 69  1  0  0  0  0
  1 70  1  0  0  0  0
  1 71  1  0  0  0  0
M  END
> <Potency>
3.08902746566604

> <pIC50>
5.51017823021128

> <Outcome>
Active

> <is_active>
1

$$$$

  Mrv1921 08232120312D          

 46 49  0  0  0  0            999 V2000
    2.8579   -6.6000    0.0000 O   0  0  0  0  0  0  0  0  0  0  0  0
    2.1434   -6.1875    0.0000 C   0  0  0  0  0  0  0  0  0  0  0  0
    1.4289   -6.6000    0.0000 O   0  0  0  0  0  0  0  0  0  0  0  0
    0.7145   -6.1875    0.0000 H   0  0  0  0  0  0  0  0  0  0  0  0
    2.1434   -5.3625    0.0000 C   0  0  0  0  0  0  0  0  0  0  0  0
    1.4289   -4.9500    0.0000 N   0  0  0  0  0  0  0  0  0  0  0  0
    0.7145   -5.3625    0.0000 C   0  0  0  0  0  0  0  0  0  0  0  0
    1.4289   -5.7750    0.0000 H   0  0  0  0  0  0  0  0  0  0  0  0
    0.0000   -5.7750    0.0000 H   0  0  0  0  0  0  0  0  0  0  0  0
    0.0000   -4.9500    0.0000 C   0  0  0  0  0  0  0  0  0  0  0  0
   -0.7145   -5.3625    0.0000 C   0  0  0  0  0  0  0  0  0  0  0  0
   -1.4289   -4.9500    0.0000 C   0  0  0  0  0  0  0  0  0  0  0  0
   -1.4289   -4.1250    0.0000 C   0  0  0  0  0  0  0  0  0  0  0  0
   -2.1434   -3.7125    0.0000 Cl  0  0  0  0  0  0  0  0  0  0  0  0
   -0.7145   -3.7125    0.0000 C   0  0  0  0  0  0  0  0  0  0  0  0
   -0.7145   -2.8875    0.0000 H   0  0  0  0  0  0  0  0  0  0  0  0
    0.0000   -4.1250    0.0000 C   0  0  0  0  0  0  0  0  0  0  0  0
    0.7145   -3.7125    0.0000 C   0  0  0  0  0  0  0  0  0  0  0  0
    0.7145   -2.8875    0.0000 C   0  0  0  0  0  0  0  0  0  0  0  0
    0.0000   -2.4750    0.0000 O   0  0  0  0  0  0  0  0  0  0  0  0
    1.4289   -2.4750    0.0000 N   0  0  0  0  0  0  0  0  0  0  0  0
    1.4289   -1.6500    0.0000 C   0  0  0  0  0  0  0  0  0  0  0  0
    0.7145   -1.2375    0.0000 C   0  0  0  0  0  0  0  0  0  0  0  0
    0.0000   -1.6500    0.0000 H   0  0  0  0  0  0  0  0  0  0  0  0
    0.7145   -0.4125    0.0000 N   0  0  0  0  0  0  0  0  0  0  0  0
    1.4289    0.0000    0.0000 C   0  0  0  0  0  0  0  0  0  0  0  0
    1.4289    0.8250    0.0000 H   0  0  0  0  0  0  0  0  0  0  0  0
    2.1434   -0.4125    0.0000 C   0  0  0  0  0  0  0  0  0  0  0  0
    2.8579    0.0000    0.0000 C   0  0  0  0  0  0  0  0  0  0  0  0
    3.5724   -0.4125    0.0000 C   0  0  0  0  0  0  0  0  0  0  0  0
    3.5724   -1.2375    0.0000 C   0  0  0  0  0  0  0  0  0  0  0  0
    2.8579   -1.6500    0.0000 C   0  0  0  0  0  0  0  0  0  0  0  0
    2.8579   -2.4750    0.0000 H   0  0  0  0  0  0  0  0  0  0  0  0
    2.1434   -1.2375    0.0000 C   0  0  0  0  0  0  0  0  0  0  0  0
    4.2868   -1.6500    0.0000 H   0  0  0  0  0  0  0  0  0  0  0  0
    4.2868   -0.0000    0.0000 H   0  0  0  0  0  0  0  0  0  0  0  0
    2.8579    0.8250    0.0000 H   0  0  0  0  0  0  0  0  0  0  0  0
    2.2539   -2.4750    0.0000 H   0  0  0  0  0  0  0  0  0  0  0  0
    1.4289   -3.3000    0.0000 H   0  0  0  0  0  0  0  0  0  0  0  0
    1.4289   -4.1250    0.0000 C   0  0  0  0  0  0  0  0  0  0  0  0
    2.2042   -4.4072    0.0000 H   0  0  0  0  0  0  0  0  0  0  0  0
    2.2042   -3.8428    0.0000 H   0  0  0  0  0  0  0  0  0  0  0  0
   -2.1434   -5.3625    0.0000 H   0  0  0  0  0  0  0  0  0  0  0  0
   -1.1270   -6.0770    0.0000 H   0  0  0  0  0  0  0  0  0  0  0  0
    2.9670   -5.3145    0.0000 H   0  0  0  0  0  0  0  0  0  0  0  0
    2.5968   -4.6732    0.0000 H   0  0  0  0  0  0  0  0  0  0  0  0
  1  2  2  0  0  0  0
  2  3  1  0  0  0  0
  3  4  1  0  0  0  0
  2  5  1  0  0  0  0
  5  6  1  0  0  0  0
  6  7  1  0  0  0  0
  7  8  1  0  0  0  0
  7  9  1  0  0  0  0
  7 10  1  0  0  0  0
 10 11  2  0  0  0  0
 11 12  1  0  0  0  0
 12 13  2  0  0  0  0
 13 14  1  0  0  0  0
 13 15  1  0  0  0  0
 15 16  1  0  0  0  0
 15 17  2  0  0  0  0
 10 17  1  0  0  0  0
 17 18  1  0  0  0  0
 18 19  1  0  0  0  0
 19 20  2  0  0  0  0
 19 21  1  0  0  0  0
 21 22  1  0  0  0  0
 22 23  2  0  0  0  0
 23 24  1  0  0  0  0
 23 25  1  0  0  0  0
 25 26  2  0  0  0  0
 26 27  1  0  0  0  0
 26 28  1  0  0  0  0
 28 29  2  0  0  0  0
 29 30  1  0  0  0  0
 30 31  2  0  0  0  0
 31 32  1  0  0  0  0
 32 33  1  0  0  0  0
 32 34  2  0  0  0  0
 22 34  1  0  0  0  0
 28 34  1  0  0  0  0
 31 35  1  0  0  0  0
 30 36  1  0  0  0  0
 29 37  1  0  0  0  0
 21 38  1  0  0  0  0
 18 39  1  0  0  0  0
 18 40  1  0  0  0  0
  6 40  1  0  0  0  0
 40 41  1  0  0  0  0
 40 42  1  0  0  0  0
 12 43  1  0  0  0  0
 11 44  1  0  0  0  0
  5 45  1  0  0  0  0
  5 46  1  0  0  0  0
M  END
> <Potency>
8.43123350606527

> <pIC50>
5.074108882588983

> <Outcome>
Active

> <is_active>
1

$$$$

  Mrv1921 08232120312D          

 50 54  0  0  0  0            999 V2000
    0.7145   -2.8875    0.0000 O   0  0  0  0  0  0  0  0  0  0  0  0
    1.4289   -2.4750    0.0000 C   0  0  0  0  0  0  0  0  0  0  0  0
    2.1434   -2.8875    0.0000 N   0  0  0  0  0  0  0  0  0  0  0  0
    2.1434   -3.7125    0.0000 C   0  0  0  0  0  0  0  0  0  0  0  0
    2.8579   -4.1250    0.0000 C   0  0  0  0  0  0  0  0  0  0  0  0
    3.5724   -3.7125    0.0000 H   0  0  0  0  0  0  0  0  0  0  0  0
    2.8579   -4.9500    0.0000 N   0  0  0  0  0  0  0  0  0  0  0  0
    2.1434   -5.3625    0.0000 C   0  0  0  0  0  0  0  0  0  0  0  0
    2.1434   -6.1875    0.0000 H   0  0  0  0  0  0  0  0  0  0  0  0
    1.4289   -4.9500    0.0000 C   0  0  0  0  0  0  0  0  0  0  0  0
    0.7145   -5.3625    0.0000 C   0  0  0  0  0  0  0  0  0  0  0  0
    0.0000   -4.9500    0.0000 C   0  0  0  0  0  0  0  0  0  0  0  0
    0.0000   -4.1250    0.0000 C   0  0  0  0  0  0  0  0  0  0  0  0
    0.7145   -3.7125    0.0000 C   0  0  0  0  0  0  0  0  0  0  0  0
    1.4289   -3.3000    0.0000 H   0  0  0  0  0  0  0  0  0  0  0  0
    1.4289   -4.1250    0.0000 C   0  0  0  0  0  0  0  0  0  0  0  0
   -0.7145   -3.7125    0.0000 H   0  0  0  0  0  0  0  0  0  0  0  0
   -0.7145   -5.3625    0.0000 H   0  0  0  0  0  0  0  0  0  0  0  0
    0.7145   -6.1875    0.0000 H   0  0  0  0  0  0  0  0  0  0  0  0
    2.8579   -2.4750    0.0000 H   0  0  0  0  0  0  0  0  0  0  0  0
    1.4289   -1.6500    0.0000 C   0  0  0  0  0  0  0  0  0  0  0  0
    0.7145   -1.2375    0.0000 C   0  0  0  0  0  0  0  0  0  0  0  0
   -0.1091   -1.2855    0.0000 H   0  0  0  0  0  0  0  0  0  0  0  0
    0.2611   -1.9268    0.0000 H   0  0  0  0  0  0  0  0  0  0  0  0
    0.7145   -0.4125    0.0000 N   0  0  0  0  0  0  0  0  0  0  0  0
    0.0000    0.0000    0.0000 S   0  0  0  0  0  0  0  0  0  0  0  0
    0.4125    0.7145    0.0000 O   0  0  0  0  0  0  0  0  0  0  0  0
   -0.4125   -0.7145    0.0000 O   0  0  0  0  0  0  0  0  0  0  0  0
   -0.7145    0.4125    0.0000 C   0  0  0  0  0  0  0  0  0  0  0  0
   -1.4681    0.0769    0.0000 N   0  0  0  0  0  0  0  0  0  0  0  0
   -2.0202    0.6900    0.0000 C   0  0  0  0  0  0  0  0  0  0  0  0
   -2.8407    0.6038    0.0000 H   0  0  0  0  0  0  0  0  0  0  0  0
   -1.6077    1.4045    0.0000 C   0  0  0  0  0  0  0  0  0  0  0  0
   -1.9432    2.1582    0.0000 H   0  0  0  0  0  0  0  0  0  0  0  0
   -0.8007    1.2330    0.0000 N   0  0  0  0  0  0  0  0  0  0  0  0
   -0.1876    1.7850    0.0000 H   0  0  0  0  0  0  0  0  0  0  0  0
    1.4289    0.0000    0.0000 C   0  0  0  0  0  0  0  0  0  0  0  0
    1.7992    0.7372    0.0000 H   0  0  0  0  0  0  0  0  0  0  0  0
    1.0587    0.7372    0.0000 H   0  0  0  0  0  0  0  0  0  0  0  0
    2.1434   -0.4125    0.0000 C   0  0  0  0  0  0  0  0  0  0  0  0
    2.8579    0.0000    0.0000 C   0  0  0  0  0  0  0  0  0  0  0  0
    3.5724   -0.4125    0.0000 C   0  0  0  0  0  0  0  0  0  0  0  0
    3.5724   -1.2375    0.0000 C   0  0  0  0  0  0  0  0  0  0  0  0
    4.2868   -1.6500    0.0000 Cl  0  0  0  0  0  0  0  0  0  0  0  0
    2.8579   -1.6500    0.0000 C   0  0  0  0  0  0  0  0  0  0  0  0
    2.8579   -0.8250    0.0000 H   0  0  0  0  0  0  0  0  0  0  0  0
    2.1434   -1.2375    0.0000 C   0  0  0  0  0  0  0  0  0  0  0  0
    4.2868   -0.0000    0.0000 H   0  0  0  0  0  0  0  0  0  0  0  0
    2.8579    0.8250    0.0000 H   0  0  0  0  0  0  0  0  0  0  0  0
    2.1434   -2.0625    0.0000 H   0  0  0  0  0  0  0  0  0  0  0  0
  1  2  2  0  0  0  0
  2  3  1  0  0  0  0
  3  4  1  0  0  0  0
  4  5  2  0  0  0  0
  5  6  1  0  0  0  0
  5  7  1  0  0  0  0
  7  8  2  0  0  0  0
  8  9  1  0  0  0  0
  8 10  1  0  0  0  0
 10 11  2  0  0  0  0
 11 12  1  0  0  0  0
 12 13  2  0  0  0  0
 13 14  1  0  0  0  0
 14 15  1  0  0  0  0
 14 16  2  0  0  0  0
  4 16  1  0  0  0  0
 10 16  1  0  0  0  0
 13 17  1  0  0  0  0
 12 18  1  0  0  0  0
 11 19  1  0  0  0  0
  3 20  1  0  0  0  0
  2 21  1  0  0  0  0
 21 22  1  0  0  0  0
 22 23  1  0  0  0  0
 22 24  1  0  0  0  0
 22 25  1  0  0  0  0
 25 26  1  0  0  0  0
 26 27  2  0  0  0  0
 26 28  2  0  0  0  0
 26 29  1  0  0  0  0
 29 30  2  0  0  0  0
 30 31  1  0  0  0  0
 31 32  1  0  0  0  0
 31 33  2  0  0  0  0
 33 34  1  0  0  0  0
 33 35  1  0  0  0  0
 29 35  1  0  0  0  0
 35 36  1  0  0  0  0
 25 37  1  0  0  0  0
 37 38  1  0  0  0  0
 37 39  1  0  0  0  0
 37 40  1  0  0  0  0
 40 41  2  0  0  0  0
 41 42  1  0  0  0  0
 42 43  2  0  0  0  0
 43 44  1  0  0  0  0
 43 45  1  0  0  0  0
 45 46  1  0  0  0  0
 45 47  2  0  0  0  0
 21 47  1  0  0  0  0
 40 47  1  0  0  0  0
 42 48  1  0  0  0  0
 41 49  1  0  0  0  0
 21 50  1  0  0  0  0
M  END
> <Potency>
0.217125208015633

> <pIC50>
6.6632897524711625

> <Outcome>
Active

> <is_active>
1

$$$$

  Mrv1921 08232120312D          

 52 56  0  0  0  0            999 V2000
    3.5955   -6.4175    0.0000 C   0  0  0  0  0  0  0  0  0  0  0  0
    2.8109   -6.6724    0.0000 N   0  0  0  0  0  0  0  0  0  0  0  0
    2.5559   -7.4570    0.0000 N   0  0  0  0  0  0  0  0  0  0  0  0
    1.7309   -7.4570    0.0000 C   0  0  0  0  0  0  0  0  0  0  0  0
    1.2460   -8.1245    0.0000 H   0  0  0  0  0  0  0  0  0  0  0  0
    1.4760   -6.6724    0.0000 C   0  0  0  0  0  0  0  0  0  0  0  0
    0.6914   -6.4175    0.0000 H   0  0  0  0  0  0  0  0  0  0  0  0
    2.1434   -6.1875    0.0000 C   0  0  0  0  0  0  0  0  0  0  0  0
    2.1434   -5.3625    0.0000 C   0  0  0  0  0  0  0  0  0  0  0  0
    2.8579   -4.9500    0.0000 O   0  0  0  0  0  0  0  0  0  0  0  0
    1.4289   -4.9500    0.0000 N   0  0  0  0  0  0  0  0  0  0  0  0
    0.7145   -5.3625    0.0000 C   0  0  0  0  0  0  0  0  0  0  0  0
    0.3442   -6.0997    0.0000 H   0  0  0  0  0  0  0  0  0  0  0  0
    1.0847   -6.0997    0.0000 H   0  0  0  0  0  0  0  0  0  0  0  0
    0.0000   -4.9500    0.0000 C   0  0  0  0  0  0  0  0  0  0  0  0
   -0.7145   -5.3625    0.0000 C   0  0  0  0  0  0  0  0  0  0  0  0
   -1.4289   -4.9500    0.0000 C   0  0  0  0  0  0  0  0  0  0  0  0
   -1.4289   -4.1250    0.0000 C   0  0  0  0  0  0  0  0  0  0  0  0
   -2.1434   -3.7125    0.0000 Cl  0  0  0  0  0  0  0  0  0  0  0  0
   -0.7145   -3.7125    0.0000 C   0  0  0  0  0  0  0  0  0  0  0  0
   -0.7145   -2.8875    0.0000 H   0  0  0  0  0  0  0  0  0  0  0  0
    0.0000   -4.1250    0.0000 C   0  0  0  0  0  0  0  0  0  0  0  0
    0.7145   -3.7125    0.0000 C   0  0  0  0  0  0  0  0  0  0  0  0
    0.7145   -2.8875    0.0000 C   0  0  0  0  0  0  0  0  0  0  0  0
    0.0000   -2.4750    0.0000 O   0  0  0  0  0  0  0  0  0  0  0  0
    1.4289   -2.4750    0.0000 N   0  0  0  0  0  0  0  0  0  0  0  0
    1.4289   -1.6500    0.0000 C   0  0  0  0  0  0  0  0  0  0  0  0
    0.7145   -1.2375    0.0000 C   0  0  0  0  0  0  0  0  0  0  0  0
    0.0000   -1.6500    0.0000 H   0  0  0  0  0  0  0  0  0  0  0  0
    0.7145   -0.4125    0.0000 N   0  0  0  0  0  0  0  0  0  0  0  0
    1.4289    0.0000    0.0000 C   0  0  0  0  0  0  0  0  0  0  0  0
    1.4289    0.8250    0.0000 H   0  0  0  0  0  0  0  0  0  0  0  0
    2.1434   -0.4125    0.0000 C   0  0  0  0  0  0  0  0  0  0  0  0
    2.8579    0.0000    0.0000 C   0  0  0  0  0  0  0  0  0  0  0  0
    3.5724   -0.4125    0.0000 C   0  0  0  0  0  0  0  0  0  0  0  0
    3.5724   -1.2375    0.0000 C   0  0  0  0  0  0  0  0  0  0  0  0
    2.8579   -1.6500    0.0000 C   0  0  0  0  0  0  0  0  0  0  0  0
    2.8579   -2.4750    0.0000 H   0  0  0  0  0  0  0  0  0  0  0  0
    2.1434   -1.2375    0.0000 C   0  0  0  0  0  0  0  0  0  0  0  0
    4.2868   -1.6500    0.0000 H   0  0  0  0  0  0  0  0  0  0  0  0
    4.2868   -0.0000    0.0000 H   0  0  0  0  0  0  0  0  0  0  0  0
    2.8579    0.8250    0.0000 H   0  0  0  0  0  0  0  0  0  0  0  0
    2.2539   -2.4750    0.0000 H   0  0  0  0  0  0  0  0  0  0  0  0
    1.4289   -3.3000    0.0000 H   0  0  0  0  0  0  0  0  0  0  0  0
    1.4289   -4.1250    0.0000 C   0  0  0  0  0  0  0  0  0  0  0  0
    2.2042   -4.4072    0.0000 H   0  0  0  0  0  0  0  0  0  0  0  0
    2.2042   -3.8428    0.0000 H   0  0  0  0  0  0  0  0  0  0  0  0
   -2.1434   -5.3625    0.0000 H   0  0  0  0  0  0  0  0  0  0  0  0
   -0.7145   -6.1875    0.0000 H   0  0  0  0  0  0  0  0  0  0  0  0
    3.8504   -7.2021    0.0000 H   0  0  0  0  0  0  0  0  0  0  0  0
    4.3801   -6.1625    0.0000 H   0  0  0  0  0  0  0  0  0  0  0  0
    3.3405   -5.6329    0.0000 H   0  0  0  0  0  0  0  0  0  0  0  0
  1  2  1  0  0  0  0
  2  3  1  0  0  0  0
  3  4  2  0  0  0  0
  4  5  1  0  0  0  0
  4  6  1  0  0  0  0
  6  7  1  0  0  0  0
  6  8  2  0  0  0  0
  2  8  1  0  0  0  0
  8  9  1  0  0  0  0
  9 10  2  0  0  0  0
  9 11  1  0  0  0  0
 11 12  1  0  0  0  0
 12 13  1  0  0  0  0
 12 14  1  0  0  0  0
 12 15  1  0  0  0  0
 15 16  2  0  0  0  0
 16 17  1  0  0  0  0
 17 18  2  0  0  0  0
 18 19  1  0  0  0  0
 18 20  1  0  0  0  0
 20 21  1  0  0  0  0
 20 22  2  0  0  0  0
 15 22  1  0  0  0  0
 22 23  1  0  0  0  0
 23 24  1  0  0  0  0
 24 25  2  0  0  0  0
 24 26  1  0  0  0  0
 26 27  1  0  0  0  0
 27 28  2  0  0  0  0
 28 29  1  0  0  0  0
 28 30  1  0  0  0  0
 30 31  2  0  0  0  0
 31 32  1  0  0  0  0
 31 33  1  0  0  0  0
 33 34  2  0  0  0  0
 34 35  1  0  0  0  0
 35 36  2  0  0  0  0
 36 37  1  0  0  0  0
 37 38  1  0  0  0  0
 37 39  2  0  0  0  0
 27 39  1  0  0  0  0
 33 39  1  0  0  0  0
 36 40  1  0  0  0  0
 35 41  1  0  0  0  0
 34 42  1  0  0  0  0
 26 43  1  0  0  0  0
 23 44  1  0  0  0  0
 23 45  1  0  0  0  0
 11 45  1  0  0  0  0
 45 46  1  0  0  0  0
 45 47  1  0  0  0  0
 17 48  1  0  0  0  0
 16 49  1  0  0  0  0
  1 50  1  0  0  0  0
  1 51  1  0  0  0  0
  1 52  1  0  0  0  0
M  END
> <Potency>
0.155333975285508

> <pIC50>
6.808733543207488

> <Outcome>
Active

> <is_active>
1

$$$$

  Mrv1921 08232120312D          

 52 56  0  0  0  0            999 V2000
    3.5955   -6.4175    0.0000 C   0  0  0  0  0  0  0  0  0  0  0  0
    2.8109   -6.6724    0.0000 N   0  0  0  0  0  0  0  0  0  0  0  0
    2.5559   -7.4570    0.0000 C   0  0  0  0  0  0  0  0  0  0  0  0
    3.0408   -8.1245    0.0000 H   0  0  0  0  0  0  0  0  0  0  0  0
    1.7309   -7.4570    0.0000 N   0  0  0  0  0  0  0  0  0  0  0  0
    1.4760   -6.6724    0.0000 C   0  0  0  0  0  0  0  0  0  0  0  0
    0.6914   -6.4175    0.0000 H   0  0  0  0  0  0  0  0  0  0  0  0
    2.1434   -6.1875    0.0000 C   0  0  0  0  0  0  0  0  0  0  0  0
    2.1434   -5.3625    0.0000 C   0  0  0  0  0  0  0  0  0  0  0  0
    2.8579   -4.9500    0.0000 O   0  0  0  0  0  0  0  0  0  0  0  0
    1.4289   -4.9500    0.0000 N   0  0  0  0  0  0  0  0  0  0  0  0
    0.7145   -5.3625    0.0000 C   0  0  0  0  0  0  0  0  0  0  0  0
    0.3442   -6.0997    0.0000 H   0  0  0  0  0  0  0  0  0  0  0  0
    1.0847   -6.0997    0.0000 H   0  0  0  0  0  0  0  0  0  0  0  0
    0.0000   -4.9500    0.0000 C   0  0  0  0  0  0  0  0  0  0  0  0
   -0.7145   -5.3625    0.0000 C   0  0  0  0  0  0  0  0  0  0  0  0
   -1.4289   -4.9500    0.0000 C   0  0  0  0  0  0  0  0  0  0  0  0
   -1.4289   -4.1250    0.0000 C   0  0  0  0  0  0  0  0  0  0  0  0
   -2.1434   -3.7125    0.0000 Cl  0  0  0  0  0  0  0  0  0  0  0  0
   -0.7145   -3.7125    0.0000 C   0  0  0  0  0  0  0  0  0  0  0  0
   -0.7145   -2.8875    0.0000 H   0  0  0  0  0  0  0  0  0  0  0  0
    0.0000   -4.1250    0.0000 C   0  0  0  0  0  0  0  0  0  0  0  0
    0.7145   -3.7125    0.0000 C   0  0  0  0  0  0  0  0  0  0  0  0
    0.7145   -2.8875    0.0000 C   0  0  0  0  0  0  0  0  0  0  0  0
    0.0000   -2.4750    0.0000 O   0  0  0  0  0  0  0  0  0  0  0  0
    1.4289   -2.4750    0.0000 N   0  0  0  0  0  0  0  0  0  0  0  0
    1.4289   -1.6500    0.0000 C   0  0  0  0  0  0  0  0  0  0  0  0
    0.7145   -1.2375    0.0000 C   0  0  0  0  0  0  0  0  0  0  0  0
    0.0000   -1.6500    0.0000 H   0  0  0  0  0  0  0  0  0  0  0  0
    0.7145   -0.4125    0.0000 N   0  0  0  0  0  0  0  0  0  0  0  0
    1.4289    0.0000    0.0000 C   0  0  0  0  0  0  0  0  0  0  0  0
    1.4289    0.8250    0.0000 H   0  0  0  0  0  0  0  0  0  0  0  0
    2.1434   -0.4125    0.0000 C   0  0  0  0  0  0  0  0  0  0  0  0
    2.8579    0.0000    0.0000 C   0  0  0  0  0  0  0  0  0  0  0  0
    3.5724   -0.4125    0.0000 C   0  0  0  0  0  0  0  0  0  0  0  0
    3.5724   -1.2375    0.0000 C   0  0  0  0  0  0  0  0  0  0  0  0
    2.8579   -1.6500    0.0000 C   0  0  0  0  0  0  0  0  0  0  0  0
    2.8579   -2.4750    0.0000 H   0  0  0  0  0  0  0  0  0  0  0  0
    2.1434   -1.2375    0.0000 C   0  0  0  0  0  0  0  0  0  0  0  0
    4.2868   -1.6500    0.0000 H   0  0  0  0  0  0  0  0  0  0  0  0
    4.2868   -0.0000    0.0000 H   0  0  0  0  0  0  0  0  0  0  0  0
    2.8579    0.8250    0.0000 H   0  0  0  0  0  0  0  0  0  0  0  0
    2.2539   -2.4750    0.0000 H   0  0  0  0  0  0  0  0  0  0  0  0
    1.4289   -3.3000    0.0000 H   0  0  0  0  0  0  0  0  0  0  0  0
    1.4289   -4.1250    0.0000 C   0  0  0  0  0  0  0  0  0  0  0  0
    2.2042   -4.4072    0.0000 H   0  0  0  0  0  0  0  0  0  0  0  0
    2.2042   -3.8428    0.0000 H   0  0  0  0  0  0  0  0  0  0  0  0
   -2.1434   -5.3625    0.0000 H   0  0  0  0  0  0  0  0  0  0  0  0
   -0.7145   -6.1875    0.0000 H   0  0  0  0  0  0  0  0  0  0  0  0
    3.8504   -7.2021    0.0000 H   0  0  0  0  0  0  0  0  0  0  0  0
    4.3801   -6.1625    0.0000 H   0  0  0  0  0  0  0  0  0  0  0  0
    3.3405   -5.6329    0.0000 H   0  0  0  0  0  0  0  0  0  0  0  0
  1  2  1  0  0  0  0
  2  3  1  0  0  0  0
  3  4  1  0  0  0  0
  3  5  2  0  0  0  0
  5  6  1  0  0  0  0
  6  7  1  0  0  0  0
  6  8  2  0  0  0  0
  2  8  1  0  0  0  0
  8  9  1  0  0  0  0
  9 10  2  0  0  0  0
  9 11  1  0  0  0  0
 11 12  1  0  0  0  0
 12 13  1  0  0  0  0
 12 14  1  0  0  0  0
 12 15  1  0  0  0  0
 15 16  2  0  0  0  0
 16 17  1  0  0  0  0
 17 18  2  0  0  0  0
 18 19  1  0  0  0  0
 18 20  1  0  0  0  0
 20 21  1  0  0  0  0
 20 22  2  0  0  0  0
 15 22  1  0  0  0  0
 22 23  1  0  0  0  0
 23 24  1  0  0  0  0
 24 25  2  0  0  0  0
 24 26  1  0  0  0  0
 26 27  1  0  0  0  0
 27 28  2  0  0  0  0
 28 29  1  0  0  0  0
 28 30  1  0  0  0  0
 30 31  2  0  0  0  0
 31 32  1  0  0  0  0
 31 33  1  0  0  0  0
 33 34  2  0  0  0  0
 34 35  1  0  0  0  0
 35 36  2  0  0  0  0
 36 37  1  0  0  0  0
 37 38  1  0  0  0  0
 37 39  2  0  0  0  0
 27 39  1  0  0  0  0
 33 39  1  0  0  0  0
 36 40  1  0  0  0  0
 35 41  1  0  0  0  0
 34 42  1  0  0  0  0
 26 43  1  0  0  0  0
 23 44  1  0  0  0  0
 23 45  1  0  0  0  0
 11 45  1  0  0  0  0
 45 46  1  0  0  0  0
 45 47  1  0  0  0  0
 17 48  1  0  0  0  0
 16 49  1  0  0  0  0
  1 50  1  0  0  0  0
  1 51  1  0  0  0  0
  1 52  1  0  0  0  0
M  END
> <Potency>
0.223776946563692

> <pIC50>
6.650184656395137

> <Outcome>
Active

> <is_active>
1

$$$$

  Mrv1921 08232120312D          

 58 62  0  0  0  0            999 V2000
    2.0782   -3.6726    0.0000 N   0  0  0  0  0  0  0  0  0  0  0  0
    1.6909   -2.9442    0.0000 S   0  0  0  0  0  0  0  0  0  0  0  0
    2.4193   -2.5569    0.0000 O   0  0  0  0  0  0  0  0  0  0  0  0
    0.9625   -3.3315    0.0000 O   0  0  0  0  0  0  0  0  0  0  0  0
    1.3036   -2.2158    0.0000 C   0  0  0  0  0  0  0  0  0  0  0  0
    0.4866   -2.1010    0.0000 N   0  0  0  0  0  0  0  0  0  0  0  0
   -0.0865   -2.6944    0.0000 H   0  0  0  0  0  0  0  0  0  0  0  0
    0.3434   -1.2885    0.0000 N   0  0  0  0  0  0  0  0  0  0  0  0
    1.0718   -0.9012    0.0000 C   0  0  0  0  0  0  0  0  0  0  0  0
    1.1866   -0.0842    0.0000 H   0  0  0  0  0  0  0  0  0  0  0  0
    1.6653   -1.4743    0.0000 C   0  0  0  0  0  0  0  0  0  0  0  0
    2.4777   -1.3310    0.0000 C   0  0  0  0  0  0  0  0  0  0  0  0
    3.0080   -1.9630    0.0000 O   0  0  0  0  0  0  0  0  0  0  0  0
    2.7599   -0.5558    0.0000 N   0  0  0  0  0  0  0  0  0  0  0  0
    3.5724   -0.4125    0.0000 C   0  0  0  0  0  0  0  0  0  0  0  0
    4.1027   -1.0445    0.0000 C   0  0  0  0  0  0  0  0  0  0  0  0
    4.6330   -0.4125    0.0000 C   0  0  0  0  0  0  0  0  0  0  0  0
    5.4454   -0.5558    0.0000 O   0  0  0  0  0  0  0  0  0  0  0  0
    4.3508    0.3627    0.0000 N   0  0  0  0  0  0  0  0  0  0  0  0
    3.5383    0.5060    0.0000 C   0  0  0  0  0  0  0  0  0  0  0  0
    3.0080   -0.1260    0.0000 C   0  0  0  0  0  0  0  0  0  0  0  0
    2.7259    0.6493    0.0000 H   0  0  0  0  0  0  0  0  0  0  0  0
    2.1956    0.0173    0.0000 N   0  0  0  0  0  0  0  0  0  0  0  0
    1.9134    0.7925    0.0000 C   0  0  0  0  0  0  0  0  0  0  0  0
    1.1009    0.9358    0.0000 H   0  0  0  0  0  0  0  0  0  0  0  0
    2.4437    1.4245    0.0000 C   0  0  0  0  0  0  0  0  0  0  0  0
    2.1615    2.1998    0.0000 C   0  0  0  0  0  0  0  0  0  0  0  0
    2.6918    2.8317    0.0000 C   0  0  0  0  0  0  0  0  0  0  0  0
    3.5043    2.6885    0.0000 C   0  0  0  0  0  0  0  0  0  0  0  0
    3.7865    1.9132    0.0000 C   0  0  0  0  0  0  0  0  0  0  0  0
    4.5989    1.7700    0.0000 H   0  0  0  0  0  0  0  0  0  0  0  0
    3.2562    1.2813    0.0000 C   0  0  0  0  0  0  0  0  0  0  0  0
    4.0346    3.3205    0.0000 H   0  0  0  0  0  0  0  0  0  0  0  0
    2.4097    3.6070    0.0000 H   0  0  0  0  0  0  0  0  0  0  0  0
    1.3491    2.3430    0.0000 H   0  0  0  0  0  0  0  0  0  0  0  0
    4.8811    0.9947    0.0000 H   0  0  0  0  0  0  0  0  0  0  0  0
    3.3882   -1.4570    0.0000 C   0  0  0  0  0  0  0  0  0  0  0  0
    4.1027   -1.8695    0.0000 H   0  0  0  0  0  0  0  0  0  0  0  0
    3.6704   -0.6817    0.0000 H   0  0  0  0  0  0  0  0  0  0  0  0
    3.3882   -2.2820    0.0000 C   0  0  0  0  0  0  0  0  0  0  0  0
    2.7033   -2.7420    0.0000 H   0  0  0  0  0  0  0  0  0  0  0  0
    3.1902   -3.0829    0.0000 H   0  0  0  0  0  0  0  0  0  0  0  0
    4.1027   -2.6945    0.0000 O   0  0  0  0  0  0  0  0  0  0  0  0
    4.8171   -2.2820    0.0000 C   0  0  0  0  0  0  0  0  0  0  0  0
    5.5316   -2.6945    0.0000 C   0  0  0  0  0  0  0  0  0  0  0  0
    6.2461   -2.2820    0.0000 C   0  0  0  0  0  0  0  0  0  0  0  0
    6.2461   -1.4570    0.0000 C   0  0  0  0  0  0  0  0  0  0  0  0
    6.9605   -1.0445    0.0000 Cl  0  0  0  0  0  0  0  0  0  0  0  0
    5.5316   -1.0445    0.0000 C   0  0  0  0  0  0  0  0  0  0  0  0
    6.2074   -0.5713    0.0000 H   0  0  0  0  0  0  0  0  0  0  0  0
    4.8171   -1.4570    0.0000 C   0  0  0  0  0  0  0  0  0  0  0  0
    6.9605   -2.6945    0.0000 H   0  0  0  0  0  0  0  0  0  0  0  0
    5.5316   -3.5195    0.0000 H   0  0  0  0  0  0  0  0  0  0  0  0
    4.3422   -0.1160    0.0000 H   0  0  0  0  0  0  0  0  0  0  0  0
    3.2902   -1.1877    0.0000 H   0  0  0  0  0  0  0  0  0  0  0  0
    1.9538   -0.7312    0.0000 H   0  0  0  0  0  0  0  0  0  0  0  0
    1.6410   -4.3723    0.0000 H   0  0  0  0  0  0  0  0  0  0  0  0
    2.9027   -3.7014    0.0000 H   0  0  0  0  0  0  0  0  0  0  0  0
  1  2  1  0  0  0  0
  2  3  2  0  0  0  0
  2  4  2  0  0  0  0
  2  5  1  0  0  0  0
  5  6  1  0  0  0  0
  6  7  1  0  0  0  0
  6  8  1  0  0  0  0
  8  9  2  0  0  0  0
  9 10  1  0  0  0  0
  9 11  1  0  0  0  0
  5 11  2  0  0  0  0
 11 12  1  0  0  0  0
 12 13  2  0  0  0  0
 12 14  1  0  0  0  0
 14 15  1  0  0  0  0
 15 16  1  0  0  0  0
 16 17  1  0  0  0  0
 17 18  2  0  0  0  0
 17 19  1  0  0  0  0
 19 20  1  0  0  0  0
 20 21  2  0  0  0  0
 21 22  1  0  0  0  0
 21 23  1  0  0  0  0
 23 24  2  0  0  0  0
 24 25  1  0  0  0  0
 24 26  1  0  0  0  0
 26 27  2  0  0  0  0
 27 28  1  0  0  0  0
 28 29  2  0  0  0  0
 29 30  1  0  0  0  0
 30 31  1  0  0  0  0
 30 32  2  0  0  0  0
 20 32  1  0  0  0  0
 26 32  1  0  0  0  0
 29 33  1  0  0  0  0
 28 34  1  0  0  0  0
 27 35  1  0  0  0  0
 19 36  1  0  0  0  0
 16 37  1  0  0  0  0
 37 38  1  0  0  0  0
 37 39  1  0  0  0  0
 37 40  1  0  0  0  0
 40 41  1  0  0  0  0
 40 42  1  0  0  0  0
 40 43  1  0  0  0  0
 43 44  1  0  0  0  0
 44 45  2  0  0  0  0
 45 46  1  0  0  0  0
 46 47  2  0  0  0  0
 47 48  1  0  0  0  0
 47 49  1  0  0  0  0
 49 50  1  0  0  0  0
 49 51  2  0  0  0  0
 16 51  1  0  0  0  0
 44 51  1  0  0  0  0
 46 52  1  0  0  0  0
 45 53  1  0  0  0  0
 15 54  1  0  0  0  0
 15 55  1  0  0  0  0
 14 56  1  0  0  0  0
  1 57  1  0  0  0  0
  1 58  1  0  0  0  0
M  END
> <Potency>
1.99007714482579

> <pIC50>
5.701130087950715

> <Outcome>
Active

> <is_active>
1

$$$$

  Mrv1921 08232120312D          

 33 35  0  0  0  0            999 V2000
   -1.4087    0.0165    0.0000 O   0  0  0  0  0  0  0  0  0  0  0  0
   -0.5837    0.0165    0.0000 C   0  0  0  0  0  0  0  0  0  0  0  0
   -0.1712    0.7310    0.0000 O   0  0  0  0  0  0  0  0  0  0  0  0
    0.6538    0.7310    0.0000 H   0  0  0  0  0  0  0  0  0  0  0  0
   -0.1712   -0.6979    0.0000 C   0  0  0  0  0  0  0  0  0  0  0  0
   -0.5837   -1.4124    0.0000 C   0  0  0  0  0  0  0  0  0  0  0  0
   -0.1712   -2.1269    0.0000 C   0  0  0  0  0  0  0  0  0  0  0  0
    0.6538   -2.1269    0.0000 H   0  0  0  0  0  0  0  0  0  0  0  0
   -0.5837   -2.8414    0.0000 C   0  0  0  0  0  0  0  0  0  0  0  0
   -0.1712   -3.5558    0.0000 H   0  0  0  0  0  0  0  0  0  0  0  0
   -1.4087   -2.8414    0.0000 C   0  0  0  0  0  0  0  0  0  0  0  0
   -1.8212   -3.5558    0.0000 H   0  0  0  0  0  0  0  0  0  0  0  0
   -1.8212   -2.1269    0.0000 C   0  0  0  0  0  0  0  0  0  0  0  0
   -2.6462   -2.1269    0.0000 H   0  0  0  0  0  0  0  0  0  0  0  0
   -1.4087   -1.4124    0.0000 C   0  0  0  0  0  0  0  0  0  0  0  0
   -2.1232   -0.9999    0.0000 H   0  0  0  0  0  0  0  0  0  0  0  0
    0.6538   -0.6979    0.0000 N   0  0  0  0  0  0  0  0  0  0  0  0
    1.1387   -0.0305    0.0000 C   0  0  0  0  0  0  0  0  0  0  0  0
    1.6439    0.6218    0.0000 H   0  0  0  0  0  0  0  0  0  0  0  0
    0.3141   -0.0052    0.0000 H   0  0  0  0  0  0  0  0  0  0  0  0
    1.9233   -0.2854    0.0000 C   0  0  0  0  0  0  0  0  0  0  0  0
    2.6378    0.1271    0.0000 C   0  0  0  0  0  0  0  0  0  0  0  0
    3.3523   -0.2854    0.0000 C   0  0  0  0  0  0  0  0  0  0  0  0
    3.3523   -1.1104    0.0000 C   0  0  0  0  0  0  0  0  0  0  0  0
    2.6378   -1.5229    0.0000 C   0  0  0  0  0  0  0  0  0  0  0  0
    2.6378   -2.3479    0.0000 H   0  0  0  0  0  0  0  0  0  0  0  0
    1.9233   -1.1104    0.0000 C   0  0  0  0  0  0  0  0  0  0  0  0
    1.1387   -1.3654    0.0000 C   0  0  0  0  0  0  0  0  0  0  0  0
    0.8838   -2.1500    0.0000 O   0  0  0  0  0  0  0  0  0  0  0  0
    4.0668   -1.5229    0.0000 H   0  0  0  0  0  0  0  0  0  0  0  0
    4.0668    0.1271    0.0000 H   0  0  0  0  0  0  0  0  0  0  0  0
    2.6378    0.9521    0.0000 H   0  0  0  0  0  0  0  0  0  0  0  0
   -0.9962   -0.6979    0.0000 H   0  0  0  0  0  0  0  0  0  0  0  0
  1  2  2  0  0  0  0
  2  3  1  0  0  0  0
  3  4  1  0  0  0  0
  2  5  1  0  0  0  0
  5  6  1  0  0  0  0
  6  7  2  0  0  0  0
  7  8  1  0  0  0  0
  7  9  1  0  0  0  0
  9 10  1  0  0  0  0
  9 11  2  0  0  0  0
 11 12  1  0  0  0  0
 11 13  1  0  0  0  0
 13 14  1  0  0  0  0
 13 15  2  0  0  0  0
  6 15  1  0  0  0  0
 15 16  1  0  0  0  0
  5 17  1  0  0  0  0
 17 18  1  0  0  0  0
 18 19  1  0  0  0  0
 18 20  1  0  0  0  0
 18 21  1  0  0  0  0
 21 22  2  0  0  0  0
 22 23  1  0  0  0  0
 23 24  2  0  0  0  0
 24 25  1  0  0  0  0
 25 26  1  0  0  0  0
 25 27  2  0  0  0  0
 21 27  1  0  0  0  0
 27 28  1  0  0  0  0
 17 28  1  0  0  0  0
 28 29  2  0  0  0  0
 24 30  1  0  0  0  0
 23 31  1  0  0  0  0
 22 32  1  0  0  0  0
  5 33  1  0  0  0  0
M  END
> <Potency>
1.78039855111307

> <pIC50>
5.7494827678178755

> <Outcome>
Active

> <is_active>
1

$$$$

  Mrv1921 08232120312D          

 33 34  0  0  0  0            999 V2000
   -2.9431   -0.2294    0.0000 O   0  0  0  0  0  0  0  0  0  0  0  0
   -2.1226   -0.3157    0.0000 C   0  0  0  0  0  0  0  0  0  0  0  0
   -1.7871   -1.0693    0.0000 C   0  0  0  0  0  0  0  0  0  0  0  0
   -2.2720   -1.7368    0.0000 Cl  0  0  0  0  0  0  0  0  0  0  0  0
   -1.0926   -1.5146    0.0000 H   0  0  0  0  0  0  0  0  0  0  0  0
   -1.0152   -0.7782    0.0000 H   0  0  0  0  0  0  0  0  0  0  0  0
   -1.6377    0.3518    0.0000 N   0  0  0  0  0  0  0  0  0  0  0  0
   -1.9733    1.1054    0.0000 C   0  0  0  0  0  0  0  0  0  0  0  0
   -2.6678    1.5507    0.0000 H   0  0  0  0  0  0  0  0  0  0  0  0
   -2.7452    0.8143    0.0000 H   0  0  0  0  0  0  0  0  0  0  0  0
   -1.4884    1.7729    0.0000 C   0  0  0  0  0  0  0  0  0  0  0  0
   -1.4500    2.5970    0.0000 H   0  0  0  0  0  0  0  0  0  0  0  0
   -2.1265    2.2958    0.0000 H   0  0  0  0  0  0  0  0  0  0  0  0
   -0.6679    1.6867    0.0000 N   0  0  0  0  0  0  0  0  0  0  0  0
   -0.1830    2.3541    0.0000 S   0  0  0  0  0  0  0  0  0  0  0  0
    0.4845    1.8692    0.0000 O   0  0  0  0  0  0  0  0  0  0  0  0
   -0.8504    2.8390    0.0000 O   0  0  0  0  0  0  0  0  0  0  0  0
    0.3020    3.0215    0.0000 C   0  0  0  0  0  0  0  0  0  0  0  0
    0.0470    3.8062    0.0000 C   0  0  0  0  0  0  0  0  0  0  0  0
   -0.7376    4.0611    0.0000 H   0  0  0  0  0  0  0  0  0  0  0  0
    0.7145    4.2911    0.0000 C   0  0  0  0  0  0  0  0  0  0  0  0
    1.1018    5.0195    0.0000 H   0  0  0  0  0  0  0  0  0  0  0  0
    0.3272    5.0195    0.0000 H   0  0  0  0  0  0  0  0  0  0  0  0
    1.3819    3.8062    0.0000 S   0  0  0  0  0  0  0  0  0  0  0  0
    2.1665    4.0611    0.0000 H   0  0  0  0  0  0  0  0  0  0  0  0
    1.1270    3.0215    0.0000 C   0  0  0  0  0  0  0  0  0  0  0  0
    1.6119    2.3541    0.0000 H   0  0  0  0  0  0  0  0  0  0  0  0
   -0.3323    0.9330    0.0000 C   0  0  0  0  0  0  0  0  0  0  0  0
    0.3622    0.4877    0.0000 H   0  0  0  0  0  0  0  0  0  0  0  0
    0.4396    1.2241    0.0000 H   0  0  0  0  0  0  0  0  0  0  0  0
   -0.8172    0.2655    0.0000 C   0  0  0  0  0  0  0  0  0  0  0  0
   -0.8556   -0.5586    0.0000 H   0  0  0  0  0  0  0  0  0  0  0  0
   -0.1791   -0.2574    0.0000 H   0  0  0  0  0  0  0  0  0  0  0  0
  1  2  2  0  0  0  0
  2  3  1  0  0  0  0
  3  4  1  0  0  0  0
  3  5  1  0  0  0  0
  3  6  1  0  0  0  0
  2  7  1  0  0  0  0
  7  8  1  0  0  0  0
  8  9  1  0  0  0  0
  8 10  1  0  0  0  0
  8 11  1  0  0  0  0
 11 12  1  0  0  0  0
 11 13  1  0  0  0  0
 11 14  1  0  0  0  0
 14 15  1  0  0  0  0
 15 16  2  0  0  0  0
 15 17  2  0  0  0  0
 15 18  1  0  0  0  0
 18 19  2  0  0  0  0
 19 20  1  0  0  0  0
 19 21  1  0  0  0  0
 21 22  1  0  0  0  0
 21 23  1  0  0  0  0
 21 24  1  0  0  0  0
 24 25  1  0  0  0  0
 24 26  2  0  0  0  0
 18 26  1  0  0  0  0
 26 27  1  0  0  0  0
 14 28  1  0  0  0  0
 28 29  1  0  0  0  0
 28 30  1  0  0  0  0
 28 31  1  0  0  0  0
  7 31  1  0  0  0  0
 31 32  1  0  0  0  0
 31 33  1  0  0  0  0
M  END
> <Potency>
1.63084331612158

> <pIC50>
5.787587761959426

> <Outcome>
Active

> <is_active>
1

$$$$

  Mrv1921 08232120312D          

 56 59  0  0  0  0            999 V2000
    1.5697    1.1850    0.0000 C   0  0  0  0  0  0  0  0  0  0  0  0
    2.3902    1.2712    0.0000 O   0  0  0  0  0  0  0  0  0  0  0  0
    2.8751    0.6038    0.0000 C   0  0  0  0  0  0  0  0  0  0  0  0
    2.5396   -0.1499    0.0000 O   0  0  0  0  0  0  0  0  0  0  0  0
    3.6956    0.6900    0.0000 C   0  0  0  0  0  0  0  0  0  0  0  0
    4.1081    1.4045    0.0000 C   0  0  0  0  0  0  0  0  0  0  0  0
    4.1656    2.2275    0.0000 H   0  0  0  0  0  0  0  0  0  0  0  0
    3.4580    1.9124    0.0000 H   0  0  0  0  0  0  0  0  0  0  0  0
    4.9151    1.2330    0.0000 C   0  0  0  0  0  0  0  0  0  0  0  0
    5.7156    1.4326    0.0000 H   0  0  0  0  0  0  0  0  0  0  0  0
    5.1972    2.0082    0.0000 H   0  0  0  0  0  0  0  0  0  0  0  0
    5.0013    0.4125    0.0000 C   0  0  0  0  0  0  0  0  0  0  0  0
    5.7158    0.0000    0.0000 C   0  0  0  0  0  0  0  0  0  0  0  0
    6.4302    0.4125    0.0000 N   0  0  0  0  0  0  0  0  0  0  0  0
    7.1447    0.0000    0.0000 C   0  0  0  0  0  0  0  0  0  0  0  0
    7.8592    0.4125    0.0000 C   0  0  0  0  0  0  0  0  0  0  0  0
    7.8592    1.2375    0.0000 O   0  0  0  0  0  0  0  0  0  0  0  0
    8.5737    0.0000    0.0000 N   0  0  0  0  0  0  0  0  0  0  0  0
    9.2881    0.4125    0.0000 C   0  0  0  0  0  0  0  0  0  0  0  0
    9.2881    1.2375    0.0000 C   0  0  0  0  0  0  0  0  0  0  0  0
    8.5737    1.6500    0.0000 H   0  0  0  0  0  0  0  0  0  0  0  0
   10.0026    1.6500    0.0000 N   0  0  0  0  0  0  0  0  0  0  0  0
   10.7171    1.2375    0.0000 C   0  0  0  0  0  0  0  0  0  0  0  0
   11.4315    1.6500    0.0000 H   0  0  0  0  0  0  0  0  0  0  0  0
   10.7171    0.4125    0.0000 C   0  0  0  0  0  0  0  0  0  0  0  0
   11.4315    0.0000    0.0000 C   0  0  0  0  0  0  0  0  0  0  0  0
   11.4315   -0.8250    0.0000 C   0  0  0  0  0  0  0  0  0  0  0  0
   10.7171   -1.2375    0.0000 C   0  0  0  0  0  0  0  0  0  0  0  0
   10.0026   -0.8250    0.0000 C   0  0  0  0  0  0  0  0  0  0  0  0
    9.2881   -1.2375    0.0000 H   0  0  0  0  0  0  0  0  0  0  0  0
   10.0026    0.0000    0.0000 C   0  0  0  0  0  0  0  0  0  0  0  0
   10.7171   -2.0625    0.0000 H   0  0  0  0  0  0  0  0  0  0  0  0
   12.1460   -1.2375    0.0000 H   0  0  0  0  0  0  0  0  0  0  0  0
   12.1460    0.4125    0.0000 H   0  0  0  0  0  0  0  0  0  0  0  0
    8.5737   -0.8250    0.0000 H   0  0  0  0  0  0  0  0  0  0  0  0
    7.1447   -0.8250    0.0000 C   0  0  0  0  0  0  0  0  0  0  0  0
    7.8592   -1.2375    0.0000 C   0  0  0  0  0  0  0  0  0  0  0  0
    7.8592   -0.4125    0.0000 H   0  0  0  0  0  0  0  0  0  0  0  0
    7.8592   -2.0625    0.0000 C   0  0  0  0  0  0  0  0  0  0  0  0
    8.5737   -2.4750    0.0000 H   0  0  0  0  0  0  0  0  0  0  0  0
    7.1447   -2.4750    0.0000 C   0  0  0  0  0  0  0  0  0  0  0  0
    7.1447   -3.3000    0.0000 H   0  0  0  0  0  0  0  0  0  0  0  0
    6.4302   -2.0625    0.0000 C   0  0  0  0  0  0  0  0  0  0  0  0
    5.7158   -2.4750    0.0000 Cl  0  0  0  0  0  0  0  0  0  0  0  0
    6.4302   -1.2375    0.0000 C   0  0  0  0  0  0  0  0  0  0  0  0
    5.6955   -1.6127    0.0000 H   0  0  0  0  0  0  0  0  0  0  0  0
    7.1447    0.8250    0.0000 H   0  0  0  0  0  0  0  0  0  0  0  0
    6.4302    1.2375    0.0000 H   0  0  0  0  0  0  0  0  0  0  0  0
    5.8460   -0.8147    0.0000 H   0  0  0  0  0  0  0  0  0  0  0  0
    6.3423   -0.5367    0.0000 H   0  0  0  0  0  0  0  0  0  0  0  0
    4.9581   -0.4114    0.0000 H   0  0  0  0  0  0  0  0  0  0  0  0
    4.2476    0.0769    0.0000 O   0  0  0  0  0  0  0  0  0  0  0  0
    3.3999   -0.0802    0.0000 H   0  0  0  0  0  0  0  0  0  0  0  0
    1.4835    2.0055    0.0000 H   0  0  0  0  0  0  0  0  0  0  0  0
    0.7492    1.0988    0.0000 H   0  0  0  0  0  0  0  0  0  0  0  0
    1.6559    0.3645    0.0000 H   0  0  0  0  0  0  0  0  0  0  0  0
  1  2  1  0  0  0  0
  2  3  1  0  0  0  0
  3  4  2  0  0  0  0
  3  5  1  0  0  0  0
  5  6  1  0  0  0  0
  6  7  1  0  0  0  0
  6  8  1  0  0  0  0
  6  9  1  0  0  0  0
  9 10  1  0  0  0  0
  9 11  1  0  0  0  0
  9 12  1  0  0  0  0
 12 13  1  0  0  0  0
 13 14  1  0  0  0  0
 14 15  1  0  0  0  0
 15 16  1  0  0  0  0
 16 17  2  0  0  0  0
 16 18  1  0  0  0  0
 18 19  1  0  0  0  0
 19 20  2  0  0  0  0
 20 21  1  0  0  0  0
 20 22  1  0  0  0  0
 22 23  2  0  0  0  0
 23 24  1  0  0  0  0
 23 25  1  0  0  0  0
 25 26  2  0  0  0  0
 26 27  1  0  0  0  0
 27 28  2  0  0  0  0
 28 29  1  0  0  0  0
 29 30  1  0  0  0  0
 29 31  2  0  0  0  0
 19 31  1  0  0  0  0
 25 31  1  0  0  0  0
 28 32  1  0  0  0  0
 27 33  1  0  0  0  0
 26 34  1  0  0  0  0
 18 35  1  0  0  0  0
 15 36  1  0  0  0  0
 36 37  2  0  0  0  0
 37 38  1  0  0  0  0
 37 39  1  0  0  0  0
 39 40  1  0  0  0  0
 39 41  2  0  0  0  0
 41 42  1  0  0  0  0
 41 43  1  0  0  0  0
 43 44  1  0  0  0  0
 43 45  2  0  0  0  0
 36 45  1  0  0  0  0
 45 46  1  0  0  0  0
 15 47  1  0  0  0  0
 14 48  1  0  0  0  0
 13 49  1  0  0  0  0
 13 50  1  0  0  0  0
 12 51  1  0  0  0  0
 12 52  1  0  0  0  0
  5 52  1  0  0  0  0
  5 53  1  0  0  0  0
  1 54  1  0  0  0  0
  1 55  1  0  0  0  0
  1 56  1  0  0  0  0
M  END
> <Potency>
1.71512725254952

> <pIC50>
5.765703652280196

> <Outcome>
Active

> <is_active>
1

$$$$

  Mrv1921 08232120312D          

 67 72  0  0  0  0            999 V2000
    1.1808   -3.0572    0.0000 O   0  0  0  0  0  0  0  0  0  0  0  0
    0.8986   -2.2820    0.0000 C   0  0  0  0  0  0  0  0  0  0  0  0
    0.0862   -2.1387    0.0000 N   0  0  0  0  0  0  0  0  0  0  0  0
   -0.4441   -2.7707    0.0000 C   0  0  0  0  0  0  0  0  0  0  0  0
   -0.1620   -3.5460    0.0000 C   0  0  0  0  0  0  0  0  0  0  0  0
    0.6505   -3.6892    0.0000 H   0  0  0  0  0  0  0  0  0  0  0  0
   -0.6923   -4.1779    0.0000 N   0  0  0  0  0  0  0  0  0  0  0  0
   -1.5047   -4.0347    0.0000 C   0  0  0  0  0  0  0  0  0  0  0  0
   -2.0350   -4.6667    0.0000 H   0  0  0  0  0  0  0  0  0  0  0  0
   -1.7869   -3.2594    0.0000 C   0  0  0  0  0  0  0  0  0  0  0  0
   -2.5994   -3.1162    0.0000 C   0  0  0  0  0  0  0  0  0  0  0  0
   -2.8815   -2.3409    0.0000 C   0  0  0  0  0  0  0  0  0  0  0  0
   -2.3512   -1.7089    0.0000 C   0  0  0  0  0  0  0  0  0  0  0  0
   -1.5388   -1.8522    0.0000 C   0  0  0  0  0  0  0  0  0  0  0  0
   -1.0085   -1.2202    0.0000 H   0  0  0  0  0  0  0  0  0  0  0  0
   -1.2566   -2.6275    0.0000 C   0  0  0  0  0  0  0  0  0  0  0  0
   -2.6334   -0.9337    0.0000 H   0  0  0  0  0  0  0  0  0  0  0  0
   -3.6940   -2.1977    0.0000 H   0  0  0  0  0  0  0  0  0  0  0  0
   -3.1297   -3.7482    0.0000 H   0  0  0  0  0  0  0  0  0  0  0  0
   -0.1960   -1.3635    0.0000 H   0  0  0  0  0  0  0  0  0  0  0  0
    1.4289   -1.6500    0.0000 C   0  0  0  0  0  0  0  0  0  0  0  0
    1.9592   -2.2820    0.0000 C   0  0  0  0  0  0  0  0  0  0  0  0
    1.6771   -3.0572    0.0000 N   0  0  0  0  0  0  0  0  0  0  0  0
    2.2074   -3.6892    0.0000 C   0  0  0  0  0  0  0  0  0  0  0  0
    3.0198   -3.5460    0.0000 C   0  0  0  0  0  0  0  0  0  0  0  0
    3.3815   -2.8045    0.0000 C   0  0  0  0  0  0  0  0  0  0  0  0
    3.6113   -2.0121    0.0000 H   0  0  0  0  0  0  0  0  0  0  0  0
    4.1985   -2.9193    0.0000 N   0  0  0  0  0  0  0  0  0  0  0  0
    4.7716   -2.3258    0.0000 C   0  0  0  0  0  0  0  0  0  0  0  0
    5.5721   -2.5254    0.0000 C   0  0  0  0  0  0  0  0  0  0  0  0
    6.2040   -1.9951    0.0000 C   0  0  0  0  0  0  0  0  0  0  0  0
    6.5396   -1.2414    0.0000 H   0  0  0  0  0  0  0  0  0  0  0  0
    5.7669   -1.2955    0.0000 H   0  0  0  0  0  0  0  0  0  0  0  0
    6.9037   -2.4323    0.0000 C   0  0  0  0  0  0  0  0  0  0  0  0
    7.7242   -2.5185    0.0000 H   0  0  0  0  0  0  0  0  0  0  0  0
    7.4340   -1.8003    0.0000 H   0  0  0  0  0  0  0  0  0  0  0  0
    6.7041   -3.2328    0.0000 C   0  0  0  0  0  0  0  0  0  0  0  0
    6.8756   -4.0398    0.0000 H   0  0  0  0  0  0  0  0  0  0  0  0
    7.4690   -3.5418    0.0000 H   0  0  0  0  0  0  0  0  0  0  0  0
    5.8811   -3.2903    0.0000 O   0  0  0  0  0  0  0  0  0  0  0  0
    6.3725   -2.7250    0.0000 H   0  0  0  0  0  0  0  0  0  0  0  0
    5.2350   -1.6433    0.0000 H   0  0  0  0  0  0  0  0  0  0  0  0
    4.9990   -3.1189    0.0000 H   0  0  0  0  0  0  0  0  0  0  0  0
    4.3417   -3.7317    0.0000 N   0  0  0  0  0  0  0  0  0  0  0  0
    3.6133   -4.1191    0.0000 N   0  0  0  0  0  0  0  0  0  0  0  0
    2.0425   -4.4976    0.0000 H   0  0  0  0  0  0  0  0  0  0  0  0
    2.6077   -4.4106    0.0000 H   0  0  0  0  0  0  0  0  0  0  0  0
    1.3284   -3.8049    0.0000 H   0  0  0  0  0  0  0  0  0  0  0  0
    2.7496   -2.5186    0.0000 H   0  0  0  0  0  0  0  0  0  0  0  0
    2.6210   -1.7893    0.0000 H   0  0  0  0  0  0  0  0  0  0  0  0
    0.7145   -1.2375    0.0000 C   0  0  0  0  0  0  0  0  0  0  0  0
    0.5562   -2.0472    0.0000 H   0  0  0  0  0  0  0  0  0  0  0  0
    1.4289   -0.8250    0.0000 H   0  0  0  0  0  0  0  0  0  0  0  0
    0.7145   -0.4125    0.0000 C   0  0  0  0  0  0  0  0  0  0  0  0
    0.2611    0.2768    0.0000 H   0  0  0  0  0  0  0  0  0  0  0  0
   -0.1091   -0.3645    0.0000 H   0  0  0  0  0  0  0  0  0  0  0  0
    1.4289    0.0000    0.0000 O   0  0  0  0  0  0  0  0  0  0  0  0
    2.1434   -0.4125    0.0000 C   0  0  0  0  0  0  0  0  0  0  0  0
    2.8579    0.0000    0.0000 C   0  0  0  0  0  0  0  0  0  0  0  0
    3.5724   -0.4125    0.0000 C   0  0  0  0  0  0  0  0  0  0  0  0
    3.5724   -1.2375    0.0000 C   0  0  0  0  0  0  0  0  0  0  0  0
    4.2868   -1.6500    0.0000 Cl  0  0  0  0  0  0  0  0  0  0  0  0
    2.8579   -1.6500    0.0000 C   0  0  0  0  0  0  0  0  0  0  0  0
    2.8579   -0.8250    0.0000 H   0  0  0  0  0  0  0  0  0  0  0  0
    2.1434   -1.2375    0.0000 C   0  0  0  0  0  0  0  0  0  0  0  0
    4.2868   -0.0000    0.0000 H   0  0  0  0  0  0  0  0  0  0  0  0
    2.8579    0.8250    0.0000 H   0  0  0  0  0  0  0  0  0  0  0  0
  1  2  2  0  0  0  0
  2  3  1  0  0  0  0
  3  4  1  0  0  0  0
  4  5  2  0  0  0  0
  5  6  1  0  0  0  0
  5  7  1  0  0  0  0
  7  8  2  0  0  0  0
  8  9  1  0  0  0  0
  8 10  1  0  0  0  0
 10 11  2  0  0  0  0
 11 12  1  0  0  0  0
 12 13  2  0  0  0  0
 13 14  1  0  0  0  0
 14 15  1  0  0  0  0
 14 16  2  0  0  0  0
  4 16  1  0  0  0  0
 10 16  1  0  0  0  0
 13 17  1  0  0  0  0
 12 18  1  0  0  0  0
 11 19  1  0  0  0  0
  3 20  1  0  0  0  0
  2 21  1  0  0  0  0
 21 22  1  0  0  0  0
 22 23  1  0  0  0  0
 23 24  1  0  0  0  0
 24 25  1  0  0  0  0
 25 26  2  0  0  0  0
 26 27  1  0  0  0  0
 26 28  1  0  0  0  0
 28 29  1  0  0  0  0
 29 30  1  0  0  0  0
 30 31  1  0  0  0  0
 31 32  1  0  0  0  0
 31 33  1  0  0  0  0
 31 34  1  0  0  0  0
 34 35  1  0  0  0  0
 34 36  1  0  0  0  0
 34 37  1  0  0  0  0
 37 38  1  0  0  0  0
 37 39  1  0  0  0  0
 37 40  1  0  0  0  0
 30 40  1  0  0  0  0
 30 41  1  0  0  0  0
 29 42  1  0  0  0  0
 29 43  1  0  0  0  0
 28 44  1  0  0  0  0
 44 45  2  0  0  0  0
 25 45  1  0  0  0  0
 24 46  1  0  0  0  0
 24 47  1  0  0  0  0
 23 48  1  0  0  0  0
 22 49  1  0  0  0  0
 22 50  1  0  0  0  0
 21 51  1  0  0  0  0
 51 52  1  0  0  0  0
 51 53  1  0  0  0  0
 51 54  1  0  0  0  0
 54 55  1  0  0  0  0
 54 56  1  0  0  0  0
 54 57  1  0  0  0  0
 57 58  1  0  0  0  0
 58 59  2  0  0  0  0
 59 60  1  0  0  0  0
 60 61  2  0  0  0  0
 61 62  1  0  0  0  0
 61 63  1  0  0  0  0
 63 64  1  0  0  0  0
 63 65  2  0  0  0  0
 21 65  1  0  0  0  0
 58 65  1  0  0  0  0
 60 66  1  0  0  0  0
 59 67  1  0  0  0  0
M  END
> <Potency>
8.54030298288858

> <pIC50>
5.068526721645596

> <Outcome>
Active

> <is_active>
1

$$$$

  Mrv1921 08232120312D          

 67 72  0  0  0  0            999 V2000
    1.1808   -3.0572    0.0000 O   0  0  0  0  0  0  0  0  0  0  0  0
    0.8986   -2.2820    0.0000 C   0  0  0  0  0  0  0  0  0  0  0  0
    0.0862   -2.1387    0.0000 N   0  0  0  0  0  0  0  0  0  0  0  0
   -0.4441   -2.7707    0.0000 C   0  0  0  0  0  0  0  0  0  0  0  0
   -0.1620   -3.5460    0.0000 C   0  0  0  0  0  0  0  0  0  0  0  0
    0.6505   -3.6892    0.0000 H   0  0  0  0  0  0  0  0  0  0  0  0
   -0.6923   -4.1779    0.0000 N   0  0  0  0  0  0  0  0  0  0  0  0
   -1.5047   -4.0347    0.0000 C   0  0  0  0  0  0  0  0  0  0  0  0
   -2.0350   -4.6667    0.0000 H   0  0  0  0  0  0  0  0  0  0  0  0
   -1.7869   -3.2594    0.0000 C   0  0  0  0  0  0  0  0  0  0  0  0
   -2.5994   -3.1162    0.0000 C   0  0  0  0  0  0  0  0  0  0  0  0
   -2.8815   -2.3409    0.0000 C   0  0  0  0  0  0  0  0  0  0  0  0
   -2.3512   -1.7089    0.0000 C   0  0  0  0  0  0  0  0  0  0  0  0
   -1.5388   -1.8522    0.0000 C   0  0  0  0  0  0  0  0  0  0  0  0
   -1.0085   -1.2202    0.0000 H   0  0  0  0  0  0  0  0  0  0  0  0
   -1.2566   -2.6275    0.0000 C   0  0  0  0  0  0  0  0  0  0  0  0
   -2.6334   -0.9337    0.0000 H   0  0  0  0  0  0  0  0  0  0  0  0
   -3.6940   -2.1977    0.0000 H   0  0  0  0  0  0  0  0  0  0  0  0
   -3.1297   -3.7482    0.0000 H   0  0  0  0  0  0  0  0  0  0  0  0
   -0.1960   -1.3635    0.0000 H   0  0  0  0  0  0  0  0  0  0  0  0
    1.4289   -1.6500    0.0000 C   0  0  0  0  0  0  0  0  0  0  0  0
    1.9592   -2.2820    0.0000 C   0  0  0  0  0  0  0  0  0  0  0  0
    1.6771   -3.0572    0.0000 N   0  0  0  0  0  0  0  0  0  0  0  0
    2.2074   -3.6892    0.0000 C   0  0  0  0  0  0  0  0  0  0  0  0
    3.0198   -3.5460    0.0000 C   0  0  0  0  0  0  0  0  0  0  0  0
    3.3815   -2.8045    0.0000 C   0  0  0  0  0  0  0  0  0  0  0  0
    3.6113   -2.0121    0.0000 H   0  0  0  0  0  0  0  0  0  0  0  0
    4.1985   -2.9193    0.0000 N   0  0  0  0  0  0  0  0  0  0  0  0
    4.7716   -2.3258    0.0000 C   0  0  0  0  0  0  0  0  0  0  0  0
    5.5721   -2.5254    0.0000 C   0  0  0  0  0  0  0  0  0  0  0  0
    6.2040   -1.9951    0.0000 C   0  0  0  0  0  0  0  0  0  0  0  0
    6.5396   -1.2414    0.0000 H   0  0  0  0  0  0  0  0  0  0  0  0
    5.7669   -1.2955    0.0000 H   0  0  0  0  0  0  0  0  0  0  0  0
    6.9037   -2.4323    0.0000 C   0  0  0  0  0  0  0  0  0  0  0  0
    7.7242   -2.5185    0.0000 H   0  0  0  0  0  0  0  0  0  0  0  0
    7.4340   -1.8003    0.0000 H   0  0  0  0  0  0  0  0  0  0  0  0
    6.7041   -3.2328    0.0000 O   0  0  0  0  0  0  0  0  0  0  0  0
    5.8811   -3.2903    0.0000 C   0  0  0  0  0  0  0  0  0  0  0  0
    5.5303   -4.0370    0.0000 H   0  0  0  0  0  0  0  0  0  0  0  0
    6.1383   -4.0742    0.0000 H   0  0  0  0  0  0  0  0  0  0  0  0
    6.3725   -2.7250    0.0000 H   0  0  0  0  0  0  0  0  0  0  0  0
    5.2350   -1.6433    0.0000 H   0  0  0  0  0  0  0  0  0  0  0  0
    4.9990   -3.1189    0.0000 H   0  0  0  0  0  0  0  0  0  0  0  0
    4.3417   -3.7317    0.0000 N   0  0  0  0  0  0  0  0  0  0  0  0
    3.6133   -4.1191    0.0000 N   0  0  0  0  0  0  0  0  0  0  0  0
    2.0425   -4.4976    0.0000 H   0  0  0  0  0  0  0  0  0  0  0  0
    2.6077   -4.4106    0.0000 H   0  0  0  0  0  0  0  0  0  0  0  0
    1.3284   -3.8049    0.0000 H   0  0  0  0  0  0  0  0  0  0  0  0
    2.7496   -2.5186    0.0000 H   0  0  0  0  0  0  0  0  0  0  0  0
    2.6210   -1.7893    0.0000 H   0  0  0  0  0  0  0  0  0  0  0  0
    0.7145   -1.2375    0.0000 C   0  0  0  0  0  0  0  0  0  0  0  0
    0.5562   -2.0472    0.0000 H   0  0  0  0  0  0  0  0  0  0  0  0
    1.4289   -0.8250    0.0000 H   0  0  0  0  0  0  0  0  0  0  0  0
    0.7145   -0.4125    0.0000 C   0  0  0  0  0  0  0  0  0  0  0  0
    0.2611    0.2768    0.0000 H   0  0  0  0  0  0  0  0  0  0  0  0
   -0.1091   -0.3645    0.0000 H   0  0  0  0  0  0  0  0  0  0  0  0
    1.4289    0.0000    0.0000 O   0  0  0  0  0  0  0  0  0  0  0  0
    2.1434   -0.4125    0.0000 C   0  0  0  0  0  0  0  0  0  0  0  0
    2.8579    0.0000    0.0000 C   0  0  0  0  0  0  0  0  0  0  0  0
    3.5724   -0.4125    0.0000 C   0  0  0  0  0  0  0  0  0  0  0  0
    3.5724   -1.2375    0.0000 C   0  0  0  0  0  0  0  0  0  0  0  0
    4.2868   -1.6500    0.0000 Cl  0  0  0  0  0  0  0  0  0  0  0  0
    2.8579   -1.6500    0.0000 C   0  0  0  0  0  0  0  0  0  0  0  0
    2.8579   -0.8250    0.0000 H   0  0  0  0  0  0  0  0  0  0  0  0
    2.1434   -1.2375    0.0000 C   0  0  0  0  0  0  0  0  0  0  0  0
    4.2868   -0.0000    0.0000 H   0  0  0  0  0  0  0  0  0  0  0  0
    2.8579    0.8250    0.0000 H   0  0  0  0  0  0  0  0  0  0  0  0
  1  2  2  0  0  0  0
  2  3  1  0  0  0  0
  3  4  1  0  0  0  0
  4  5  2  0  0  0  0
  5  6  1  0  0  0  0
  5  7  1  0  0  0  0
  7  8  2  0  0  0  0
  8  9  1  0  0  0  0
  8 10  1  0  0  0  0
 10 11  2  0  0  0  0
 11 12  1  0  0  0  0
 12 13  2  0  0  0  0
 13 14  1  0  0  0  0
 14 15  1  0  0  0  0
 14 16  2  0  0  0  0
  4 16  1  0  0  0  0
 10 16  1  0  0  0  0
 13 17  1  0  0  0  0
 12 18  1  0  0  0  0
 11 19  1  0  0  0  0
  3 20  1  0  0  0  0
  2 21  1  0  0  0  0
 21 22  1  0  0  0  0
 22 23  1  0  0  0  0
 23 24  1  0  0  0  0
 24 25  1  0  0  0  0
 25 26  2  0  0  0  0
 26 27  1  0  0  0  0
 26 28  1  0  0  0  0
 28 29  1  0  0  0  0
 29 30  1  0  0  0  0
 30 31  1  0  0  0  0
 31 32  1  0  0  0  0
 31 33  1  0  0  0  0
 31 34  1  0  0  0  0
 34 35  1  0  0  0  0
 34 36  1  0  0  0  0
 34 37  1  0  0  0  0
 37 38  1  0  0  0  0
 30 38  1  0  0  0  0
 38 39  1  0  0  0  0
 38 40  1  0  0  0  0
 30 41  1  0  0  0  0
 29 42  1  0  0  0  0
 29 43  1  0  0  0  0
 28 44  1  0  0  0  0
 44 45  2  0  0  0  0
 25 45  1  0  0  0  0
 24 46  1  0  0  0  0
 24 47  1  0  0  0  0
 23 48  1  0  0  0  0
 22 49  1  0  0  0  0
 22 50  1  0  0  0  0
 21 51  1  0  0  0  0
 51 52  1  0  0  0  0
 51 53  1  0  0  0  0
 51 54  1  0  0  0  0
 54 55  1  0  0  0  0
 54 56  1  0  0  0  0
 54 57  1  0  0  0  0
 57 58  1  0  0  0  0
 58 59  2  0  0  0  0
 59 60  1  0  0  0  0
 60 61  2  0  0  0  0
 61 62  1  0  0  0  0
 61 63  1  0  0  0  0
 63 64  1  0  0  0  0
 63 65  2  0  0  0  0
 21 65  1  0  0  0  0
 58 65  1  0  0  0  0
 60 66  1  0  0  0  0
 59 67  1  0  0  0  0
M  END
> <Potency>
5.97631044991689

> <pIC50>
5.223566850418921

> <Outcome>
Active

> <is_active>
1

$$$$

  Mrv1921 08232120312D          

 57 61  0  0  0  0            999 V2000
    4.5079   -6.6000    0.0000 N   0  0  0  0  0  0  0  0  0  0  0  0
    3.6829   -6.6000    0.0000 C   0  0  0  0  0  0  0  0  0  0  0  0
    2.8579   -6.6000    0.0000 C   0  0  0  0  0  0  0  0  0  0  0  0
    2.8579   -5.7750    0.0000 C   0  0  0  0  0  0  0  0  0  0  0  0
    2.1434   -5.3625    0.0000 S   0  0  0  0  0  0  0  0  0  0  0  0
    2.5559   -4.6480    0.0000 O   0  0  0  0  0  0  0  0  0  0  0  0
    1.7309   -6.0770    0.0000 O   0  0  0  0  0  0  0  0  0  0  0  0
    1.4289   -4.9500    0.0000 N   0  0  0  0  0  0  0  0  0  0  0  0
    0.7145   -5.3625    0.0000 C   0  0  0  0  0  0  0  0  0  0  0  0
    0.3442   -6.0997    0.0000 H   0  0  0  0  0  0  0  0  0  0  0  0
    1.0847   -6.0997    0.0000 H   0  0  0  0  0  0  0  0  0  0  0  0
    0.0000   -4.9500    0.0000 C   0  0  0  0  0  0  0  0  0  0  0  0
   -0.7145   -5.3625    0.0000 C   0  0  0  0  0  0  0  0  0  0  0  0
   -1.4289   -4.9500    0.0000 C   0  0  0  0  0  0  0  0  0  0  0  0
   -1.4289   -4.1250    0.0000 C   0  0  0  0  0  0  0  0  0  0  0  0
   -2.1434   -3.7125    0.0000 Cl  0  0  0  0  0  0  0  0  0  0  0  0
   -0.7145   -3.7125    0.0000 C   0  0  0  0  0  0  0  0  0  0  0  0
   -0.7145   -2.8875    0.0000 H   0  0  0  0  0  0  0  0  0  0  0  0
    0.0000   -4.1250    0.0000 C   0  0  0  0  0  0  0  0  0  0  0  0
    0.7145   -3.7125    0.0000 C   0  0  0  0  0  0  0  0  0  0  0  0
    0.7145   -2.8875    0.0000 C   0  0  0  0  0  0  0  0  0  0  0  0
    0.0000   -2.4750    0.0000 O   0  0  0  0  0  0  0  0  0  0  0  0
    1.4289   -2.4750    0.0000 N   0  0  0  0  0  0  0  0  0  0  0  0
    1.4289   -1.6500    0.0000 C   0  0  0  0  0  0  0  0  0  0  0  0
    0.7145   -1.2375    0.0000 C   0  0  0  0  0  0  0  0  0  0  0  0
    0.0000   -1.6500    0.0000 H   0  0  0  0  0  0  0  0  0  0  0  0
    0.7145   -0.4125    0.0000 N   0  0  0  0  0  0  0  0  0  0  0  0
    1.4289    0.0000    0.0000 C   0  0  0  0  0  0  0  0  0  0  0  0
    1.4289    0.8250    0.0000 H   0  0  0  0  0  0  0  0  0  0  0  0
    2.1434   -0.4125    0.0000 C   0  0  0  0  0  0  0  0  0  0  0  0
    2.8579    0.0000    0.0000 C   0  0  0  0  0  0  0  0  0  0  0  0
    3.5724   -0.4125    0.0000 C   0  0  0  0  0  0  0  0  0  0  0  0
    3.5724   -1.2375    0.0000 C   0  0  0  0  0  0  0  0  0  0  0  0
    2.8579   -1.6500    0.0000 C   0  0  0  0  0  0  0  0  0  0  0  0
    2.8579   -2.4750    0.0000 H   0  0  0  0  0  0  0  0  0  0  0  0
    2.1434   -1.2375    0.0000 C   0  0  0  0  0  0  0  0  0  0  0  0
    4.2868   -1.6500    0.0000 H   0  0  0  0  0  0  0  0  0  0  0  0
    4.2868   -0.0000    0.0000 H   0  0  0  0  0  0  0  0  0  0  0  0
    2.8579    0.8250    0.0000 H   0  0  0  0  0  0  0  0  0  0  0  0
    2.2539   -2.4750    0.0000 H   0  0  0  0  0  0  0  0  0  0  0  0
    1.4289   -3.3000    0.0000 H   0  0  0  0  0  0  0  0  0  0  0  0
    1.4289   -4.1250    0.0000 C   0  0  0  0  0  0  0  0  0  0  0  0
    2.2042   -4.4072    0.0000 H   0  0  0  0  0  0  0  0  0  0  0  0
    2.2042   -3.8428    0.0000 H   0  0  0  0  0  0  0  0  0  0  0  0
   -2.1434   -5.3625    0.0000 H   0  0  0  0  0  0  0  0  0  0  0  0
   -0.7145   -6.1875    0.0000 H   0  0  0  0  0  0  0  0  0  0  0  0
    3.6815   -5.7270    0.0000 H   0  0  0  0  0  0  0  0  0  0  0  0
    3.3112   -5.0857    0.0000 H   0  0  0  0  0  0  0  0  0  0  0  0
    2.8579   -7.4250    0.0000 C   0  0  0  0  0  0  0  0  0  0  0  0
    3.0714   -8.2219    0.0000 H   0  0  0  0  0  0  0  0  0  0  0  0
    3.6548   -7.6385    0.0000 H   0  0  0  0  0  0  0  0  0  0  0  0
    2.0329   -7.4250    0.0000 C   0  0  0  0  0  0  0  0  0  0  0  0
    1.2360   -7.6385    0.0000 H   0  0  0  0  0  0  0  0  0  0  0  0
    1.8194   -8.2219    0.0000 H   0  0  0  0  0  0  0  0  0  0  0  0
    2.0329   -6.6000    0.0000 C   0  0  0  0  0  0  0  0  0  0  0  0
    1.2360   -6.8135    0.0000 H   0  0  0  0  0  0  0  0  0  0  0  0
    2.4454   -5.8855    0.0000 H   0  0  0  0  0  0  0  0  0  0  0  0
  1  2  3  0  0  0  0
  2  3  1  0  0  0  0
  3  4  1  0  0  0  0
  4  5  1  0  0  0  0
  5  6  2  0  0  0  0
  5  7  2  0  0  0  0
  5  8  1  0  0  0  0
  8  9  1  0  0  0  0
  9 10  1  0  0  0  0
  9 11  1  0  0  0  0
  9 12  1  0  0  0  0
 12 13  2  0  0  0  0
 13 14  1  0  0  0  0
 14 15  2  0  0  0  0
 15 16  1  0  0  0  0
 15 17  1  0  0  0  0
 17 18  1  0  0  0  0
 17 19  2  0  0  0  0
 12 19  1  0  0  0  0
 19 20  1  0  0  0  0
 20 21  1  0  0  0  0
 21 22  2  0  0  0  0
 21 23  1  0  0  0  0
 23 24  1  0  0  0  0
 24 25  2  0  0  0  0
 25 26  1  0  0  0  0
 25 27  1  0  0  0  0
 27 28  2  0  0  0  0
 28 29  1  0  0  0  0
 28 30  1  0  0  0  0
 30 31  2  0  0  0  0
 31 32  1  0  0  0  0
 32 33  2  0  0  0  0
 33 34  1  0  0  0  0
 34 35  1  0  0  0  0
 34 36  2  0  0  0  0
 24 36  1  0  0  0  0
 30 36  1  0  0  0  0
 33 37  1  0  0  0  0
 32 38  1  0  0  0  0
 31 39  1  0  0  0  0
 23 40  1  0  0  0  0
 20 41  1  0  0  0  0
 20 42  1  0  0  0  0
  8 42  1  0  0  0  0
 42 43  1  0  0  0  0
 42 44  1  0  0  0  0
 14 45  1  0  0  0  0
 13 46  1  0  0  0  0
  4 47  1  0  0  0  0
  4 48  1  0  0  0  0
  3 49  1  0  0  0  0
 49 50  1  0  0  0  0
 49 51  1  0  0  0  0
 49 52  1  0  0  0  0
 52 53  1  0  0  0  0
 52 54  1  0  0  0  0
 52 55  1  0  0  0  0
  3 55  1  0  0  0  0
 55 56  1  0  0  0  0
 55 57  1  0  0  0  0
M  END
> <Potency>
0.0598600565754842

> <pIC50>
7.22286287703126

> <Outcome>
Active

> <is_active>
1

$$$$

  Mrv1921 08232120312D          

 49 52  0  0  0  0            999 V2000
   -0.7145    1.2375    0.0000 C   0  0  0  0  0  0  0  0  0  0  0  0
   -1.4289    0.8250    0.0000 O   0  0  0  0  0  0  0  0  0  0  0  0
   -1.4289   -0.0000    0.0000 C   0  0  0  0  0  0  0  0  0  0  0  0
   -2.1434   -0.4125    0.0000 O   0  0  0  0  0  0  0  0  0  0  0  0
   -0.7145   -0.4125    0.0000 C   0  0  0  0  0  0  0  0  0  0  0  0
   -0.7145   -1.2375    0.0000 N   0  0  0  0  0  0  0  0  0  0  0  0
   -1.4289   -1.6500    0.0000 C   0  0  0  0  0  0  0  0  0  0  0  0
   -1.8823   -0.9607    0.0000 H   0  0  0  0  0  0  0  0  0  0  0  0
   -2.2525   -1.6020    0.0000 H   0  0  0  0  0  0  0  0  0  0  0  0
   -1.4289   -2.4750    0.0000 C   0  0  0  0  0  0  0  0  0  0  0  0
   -2.1434   -2.8875    0.0000 C   0  0  0  0  0  0  0  0  0  0  0  0
   -2.1434   -3.7125    0.0000 C   0  0  0  0  0  0  0  0  0  0  0  0
   -1.4289   -4.1250    0.0000 C   0  0  0  0  0  0  0  0  0  0  0  0
   -1.4289   -4.9500    0.0000 Cl  0  0  0  0  0  0  0  0  0  0  0  0
   -0.7145   -3.7125    0.0000 C   0  0  0  0  0  0  0  0  0  0  0  0
    0.0000   -4.1250    0.0000 H   0  0  0  0  0  0  0  0  0  0  0  0
   -0.7145   -2.8875    0.0000 C   0  0  0  0  0  0  0  0  0  0  0  0
    0.0000   -2.4750    0.0000 C   0  0  0  0  0  0  0  0  0  0  0  0
    0.7145   -2.8875    0.0000 C   0  0  0  0  0  0  0  0  0  0  0  0
    0.7145   -3.7125    0.0000 O   0  0  0  0  0  0  0  0  0  0  0  0
    1.4289   -2.4750    0.0000 N   0  0  0  0  0  0  0  0  0  0  0  0
    1.4289   -1.6500    0.0000 C   0  0  0  0  0  0  0  0  0  0  0  0
    0.7145   -1.2375    0.0000 C   0  0  0  0  0  0  0  0  0  0  0  0
    0.0000   -0.8250    0.0000 H   0  0  0  0  0  0  0  0  0  0  0  0
    0.7145   -0.4125    0.0000 N   0  0  0  0  0  0  0  0  0  0  0  0
    1.4289    0.0000    0.0000 C   0  0  0  0  0  0  0  0  0  0  0  0
    1.4289    0.8250    0.0000 H   0  0  0  0  0  0  0  0  0  0  0  0
    2.1434   -0.4125    0.0000 C   0  0  0  0  0  0  0  0  0  0  0  0
    2.8579    0.0000    0.0000 C   0  0  0  0  0  0  0  0  0  0  0  0
    3.5724   -0.4125    0.0000 C   0  0  0  0  0  0  0  0  0  0  0  0
    3.5724   -1.2375    0.0000 C   0  0  0  0  0  0  0  0  0  0  0  0
    2.8579   -1.6500    0.0000 C   0  0  0  0  0  0  0  0  0  0  0  0
    2.8579   -2.4750    0.0000 H   0  0  0  0  0  0  0  0  0  0  0  0
    2.1434   -1.2375    0.0000 C   0  0  0  0  0  0  0  0  0  0  0  0
    4.2868   -1.6500    0.0000 H   0  0  0  0  0  0  0  0  0  0  0  0
    4.2868   -0.0000    0.0000 H   0  0  0  0  0  0  0  0  0  0  0  0
    2.8579    0.8250    0.0000 H   0  0  0  0  0  0  0  0  0  0  0  0
    2.1434   -2.8875    0.0000 H   0  0  0  0  0  0  0  0  0  0  0  0
    0.7145   -2.0625    0.0000 H   0  0  0  0  0  0  0  0  0  0  0  0
    0.0000   -1.6500    0.0000 C   0  0  0  0  0  0  0  0  0  0  0  0
   -0.8125   -1.7933    0.0000 H   0  0  0  0  0  0  0  0  0  0  0  0
   -0.5303   -2.2820    0.0000 H   0  0  0  0  0  0  0  0  0  0  0  0
   -2.8579   -4.1250    0.0000 H   0  0  0  0  0  0  0  0  0  0  0  0
   -2.8579   -2.4750    0.0000 H   0  0  0  0  0  0  0  0  0  0  0  0
    0.1091   -0.3645    0.0000 H   0  0  0  0  0  0  0  0  0  0  0  0
   -0.2611    0.2768    0.0000 H   0  0  0  0  0  0  0  0  0  0  0  0
   -0.3020    0.5230    0.0000 H   0  0  0  0  0  0  0  0  0  0  0  0
    0.0000    1.6500    0.0000 H   0  0  0  0  0  0  0  0  0  0  0  0
   -1.1270    1.9520    0.0000 H   0  0  0  0  0  0  0  0  0  0  0  0
  1  2  1  0  0  0  0
  2  3  1  0  0  0  0
  3  4  2  0  0  0  0
  3  5  1  0  0  0  0
  5  6  1  0  0  0  0
  6  7  1  0  0  0  0
  7  8  1  0  0  0  0
  7  9  1  0  0  0  0
  7 10  1  0  0  0  0
 10 11  2  0  0  0  0
 11 12  1  0  0  0  0
 12 13  2  0  0  0  0
 13 14  1  0  0  0  0
 13 15  1  0  0  0  0
 15 16  1  0  0  0  0
 15 17  2  0  0  0  0
 10 17  1  0  0  0  0
 17 18  1  0  0  0  0
 18 19  1  0  0  0  0
 19 20  2  0  0  0  0
 19 21  1  0  0  0  0
 21 22  1  0  0  0  0
 22 23  2  0  0  0  0
 23 24  1  0  0  0  0
 23 25  1  0  0  0  0
 25 26  2  0  0  0  0
 26 27  1  0  0  0  0
 26 28  1  0  0  0  0
 28 29  2  0  0  0  0
 29 30  1  0  0  0  0
 30 31  2  0  0  0  0
 31 32  1  0  0  0  0
 32 33  1  0  0  0  0
 32 34  2  0  0  0  0
 22 34  1  0  0  0  0
 28 34  1  0  0  0  0
 31 35  1  0  0  0  0
 30 36  1  0  0  0  0
 29 37  1  0  0  0  0
 21 38  1  0  0  0  0
 18 39  1  0  0  0  0
 18 40  1  0  0  0  0
  6 40  1  0  0  0  0
 40 41  1  0  0  0  0
 40 42  1  0  0  0  0
 12 43  1  0  0  0  0
 11 44  1  0  0  0  0
  5 45  1  0  0  0  0
  5 46  1  0  0  0  0
  1 47  1  0  0  0  0
  1 48  1  0  0  0  0
  1 49  1  0  0  0  0
M  END
> <Potency>
1.54999926592988

> <pIC50>
5.809668507508855

> <Outcome>
Active

> <is_active>
1

$$$$

  Mrv1921 08232120312D          

 50 53  0  0  0  0            999 V2000
    0.7145    1.2375    0.0000 C   0  0  0  0  0  0  0  0  0  0  0  0
    0.0000    0.8250    0.0000 O   0  0  0  0  0  0  0  0  0  0  0  0
    0.0000    0.0000    0.0000 C   0  0  0  0  0  0  0  0  0  0  0  0
   -0.7145   -0.4125    0.0000 C   0  0  0  0  0  0  0  0  0  0  0  0
   -0.7145   -1.2375    0.0000 N   0  0  0  0  0  0  0  0  0  0  0  0
   -1.4289   -1.6500    0.0000 C   0  0  0  0  0  0  0  0  0  0  0  0
   -2.1602   -1.2681    0.0000 H   0  0  0  0  0  0  0  0  0  0  0  0
   -2.1345   -2.0775    0.0000 H   0  0  0  0  0  0  0  0  0  0  0  0
   -1.4289   -2.4750    0.0000 C   0  0  0  0  0  0  0  0  0  0  0  0
   -2.1434   -2.8875    0.0000 C   0  0  0  0  0  0  0  0  0  0  0  0
   -2.1434   -3.7125    0.0000 C   0  0  0  0  0  0  0  0  0  0  0  0
   -1.4289   -4.1250    0.0000 C   0  0  0  0  0  0  0  0  0  0  0  0
   -1.4289   -4.9500    0.0000 Cl  0  0  0  0  0  0  0  0  0  0  0  0
   -0.7145   -3.7125    0.0000 C   0  0  0  0  0  0  0  0  0  0  0  0
    0.0000   -4.1250    0.0000 H   0  0  0  0  0  0  0  0  0  0  0  0
   -0.7145   -2.8875    0.0000 C   0  0  0  0  0  0  0  0  0  0  0  0
    0.0000   -2.4750    0.0000 C   0  0  0  0  0  0  0  0  0  0  0  0
    0.7145   -2.8875    0.0000 C   0  0  0  0  0  0  0  0  0  0  0  0
    0.7145   -3.7125    0.0000 O   0  0  0  0  0  0  0  0  0  0  0  0
    1.4289   -2.4750    0.0000 N   0  0  0  0  0  0  0  0  0  0  0  0
    1.4289   -1.6500    0.0000 C   0  0  0  0  0  0  0  0  0  0  0  0
    0.7145   -1.2375    0.0000 C   0  0  0  0  0  0  0  0  0  0  0  0
    0.0000   -0.8250    0.0000 H   0  0  0  0  0  0  0  0  0  0  0  0
    0.7145   -0.4125    0.0000 N   0  0  0  0  0  0  0  0  0  0  0  0
    1.4289    0.0000    0.0000 C   0  0  0  0  0  0  0  0  0  0  0  0
    2.0123    0.5834    0.0000 H   0  0  0  0  0  0  0  0  0  0  0  0
    2.1434   -0.4125    0.0000 C   0  0  0  0  0  0  0  0  0  0  0  0
    2.8579    0.0000    0.0000 C   0  0  0  0  0  0  0  0  0  0  0  0
    3.5724   -0.4125    0.0000 C   0  0  0  0  0  0  0  0  0  0  0  0
    3.5724   -1.2375    0.0000 C   0  0  0  0  0  0  0  0  0  0  0  0
    2.8579   -1.6500    0.0000 C   0  0  0  0  0  0  0  0  0  0  0  0
    2.8579   -2.4750    0.0000 H   0  0  0  0  0  0  0  0  0  0  0  0
    2.1434   -1.2375    0.0000 C   0  0  0  0  0  0  0  0  0  0  0  0
    4.2868   -1.6500    0.0000 H   0  0  0  0  0  0  0  0  0  0  0  0
    4.2868   -0.0000    0.0000 H   0  0  0  0  0  0  0  0  0  0  0  0
    2.8579    0.8250    0.0000 H   0  0  0  0  0  0  0  0  0  0  0  0
    2.1434   -2.8875    0.0000 H   0  0  0  0  0  0  0  0  0  0  0  0
    0.7145   -2.0625    0.0000 H   0  0  0  0  0  0  0  0  0  0  0  0
    0.0000   -1.6500    0.0000 C   0  0  0  0  0  0  0  0  0  0  0  0
   -0.8125   -1.7933    0.0000 H   0  0  0  0  0  0  0  0  0  0  0  0
   -0.5303   -2.2820    0.0000 H   0  0  0  0  0  0  0  0  0  0  0  0
   -2.8579   -4.1250    0.0000 H   0  0  0  0  0  0  0  0  0  0  0  0
   -2.9684   -2.8830    0.0000 H   0  0  0  0  0  0  0  0  0  0  0  0
   -1.4897   -0.1303    0.0000 H   0  0  0  0  0  0  0  0  0  0  0  0
   -1.4897   -0.6947    0.0000 H   0  0  0  0  0  0  0  0  0  0  0  0
    0.7145    0.4125    0.0000 H   0  0  0  0  0  0  0  0  0  0  0  0
   -0.7145    0.4125    0.0000 H   0  0  0  0  0  0  0  0  0  0  0  0
    1.1270    0.5230    0.0000 H   0  0  0  0  0  0  0  0  0  0  0  0
    1.4289    1.6500    0.0000 H   0  0  0  0  0  0  0  0  0  0  0  0
    0.3020    1.9520    0.0000 H   0  0  0  0  0  0  0  0  0  0  0  0
  1  2  1  0  0  0  0
  2  3  1  0  0  0  0
  3  4  1  0  0  0  0
  4  5  1  0  0  0  0
  5  6  1  0  0  0  0
  6  7  1  0  0  0  0
  6  8  1  0  0  0  0
  6  9  1  0  0  0  0
  9 10  2  0  0  0  0
 10 11  1  0  0  0  0
 11 12  2  0  0  0  0
 12 13  1  0  0  0  0
 12 14  1  0  0  0  0
 14 15  1  0  0  0  0
 14 16  2  0  0  0  0
  9 16  1  0  0  0  0
 16 17  1  0  0  0  0
 17 18  1  0  0  0  0
 18 19  2  0  0  0  0
 18 20  1  0  0  0  0
 20 21  1  0  0  0  0
 21 22  2  0  0  0  0
 22 23  1  0  0  0  0
 22 24  1  0  0  0  0
 24 25  2  0  0  0  0
 25 26  1  0  0  0  0
 25 27  1  0  0  0  0
 27 28  2  0  0  0  0
 28 29  1  0  0  0  0
 29 30  2  0  0  0  0
 30 31  1  0  0  0  0
 31 32  1  0  0  0  0
 31 33  2  0  0  0  0
 21 33  1  0  0  0  0
 27 33  1  0  0  0  0
 30 34  1  0  0  0  0
 29 35  1  0  0  0  0
 28 36  1  0  0  0  0
 20 37  1  0  0  0  0
 17 38  1  0  0  0  0
 17 39  1  0  0  0  0
  5 39  1  0  0  0  0
 39 40  1  0  0  0  0
 39 41  1  0  0  0  0
 11 42  1  0  0  0  0
 10 43  1  0  0  0  0
  4 44  1  0  0  0  0
  4 45  1  0  0  0  0
  3 46  1  0  0  0  0
  3 47  1  0  0  0  0
  1 48  1  0  0  0  0
  1 49  1  0  0  0  0
  1 50  1  0  0  0  0
M  END
> <Potency>
2.26478541539324

> <pIC50>
5.644972940373186

> <Outcome>
Active

> <is_active>
1

$$$$

  Mrv1921 08232120312D          

 54 58  0  0  0  0            999 V2000
    0.0862   -2.1387    0.0000 O   0  0  0  0  0  0  0  0  0  0  0  0
    0.8986   -2.2820    0.0000 C   0  0  0  0  0  0  0  0  0  0  0  0
    1.1808   -3.0572    0.0000 N   0  0  0  0  0  0  0  0  0  0  0  0
    0.6505   -3.6892    0.0000 C   0  0  0  0  0  0  0  0  0  0  0  0
    0.9327   -4.4645    0.0000 C   0  0  0  0  0  0  0  0  0  0  0  0
    1.7451   -4.6077    0.0000 H   0  0  0  0  0  0  0  0  0  0  0  0
    0.4024   -5.0965    0.0000 N   0  0  0  0  0  0  0  0  0  0  0  0
   -0.4101   -4.9532    0.0000 C   0  0  0  0  0  0  0  0  0  0  0  0
   -0.9404   -5.5852    0.0000 H   0  0  0  0  0  0  0  0  0  0  0  0
   -0.6923   -4.1779    0.0000 C   0  0  0  0  0  0  0  0  0  0  0  0
   -1.5047   -4.0347    0.0000 C   0  0  0  0  0  0  0  0  0  0  0  0
   -1.7869   -3.2594    0.0000 C   0  0  0  0  0  0  0  0  0  0  0  0
   -1.2566   -2.6275    0.0000 C   0  0  0  0  0  0  0  0  0  0  0  0
   -0.4441   -2.7707    0.0000 C   0  0  0  0  0  0  0  0  0  0  0  0
    0.3683   -2.9140    0.0000 H   0  0  0  0  0  0  0  0  0  0  0  0
   -0.1620   -3.5460    0.0000 C   0  0  0  0  0  0  0  0  0  0  0  0
   -1.5388   -1.8522    0.0000 H   0  0  0  0  0  0  0  0  0  0  0  0
   -2.5994   -3.1162    0.0000 H   0  0  0  0  0  0  0  0  0  0  0  0
   -2.0350   -4.6667    0.0000 H   0  0  0  0  0  0  0  0  0  0  0  0
    1.9933   -3.2005    0.0000 H   0  0  0  0  0  0  0  0  0  0  0  0
    1.4289   -1.6500    0.0000 C   0  0  0  0  0  0  0  0  0  0  0  0
    1.9592   -2.2820    0.0000 C   0  0  0  0  0  0  0  0  0  0  0  0
    2.7717   -2.1387    0.0000 N   0  0  0  0  0  0  0  0  0  0  0  0
    3.3020   -2.7707    0.0000 C   0  0  0  0  0  0  0  0  0  0  0  0
    4.1145   -2.6275    0.0000 C   0  0  0  0  0  0  0  0  0  0  0  0
    4.7563   -2.1091    0.0000 H   0  0  0  0  0  0  0  0  0  0  0  0
    4.6448   -3.2594    0.0000 N   0  0  0  0  0  0  0  0  0  0  0  0
    5.4572   -3.1162    0.0000 H   0  0  0  0  0  0  0  0  0  0  0  0
    4.3626   -4.0347    0.0000 C   0  0  0  0  0  0  0  0  0  0  0  0
    4.8929   -4.6667    0.0000 O   0  0  0  0  0  0  0  0  0  0  0  0
    3.5501   -4.1779    0.0000 N   0  0  0  0  0  0  0  0  0  0  0  0
    3.2680   -4.9532    0.0000 H   0  0  0  0  0  0  0  0  0  0  0  0
    3.0198   -3.5460    0.0000 C   0  0  0  0  0  0  0  0  0  0  0  0
    2.2074   -3.6892    0.0000 O   0  0  0  0  0  0  0  0  0  0  0  0
    3.5686   -1.9252    0.0000 H   0  0  0  0  0  0  0  0  0  0  0  0
    1.1894   -2.5785    0.0000 H   0  0  0  0  0  0  0  0  0  0  0  0
    2.2414   -1.5067    0.0000 H   0  0  0  0  0  0  0  0  0  0  0  0
    0.7145   -1.2375    0.0000 C   0  0  0  0  0  0  0  0  0  0  0  0
   -0.1091   -1.2855    0.0000 H   0  0  0  0  0  0  0  0  0  0  0  0
    0.2611   -1.9268    0.0000 H   0  0  0  0  0  0  0  0  0  0  0  0
    0.7145   -0.4125    0.0000 C   0  0  0  0  0  0  0  0  0  0  0  0
    0.2611    0.2768    0.0000 H   0  0  0  0  0  0  0  0  0  0  0  0
   -0.1091   -0.3645    0.0000 H   0  0  0  0  0  0  0  0  0  0  0  0
    1.4289    0.0000    0.0000 O   0  0  0  0  0  0  0  0  0  0  0  0
    2.1434   -0.4125    0.0000 C   0  0  0  0  0  0  0  0  0  0  0  0
    2.8579    0.0000    0.0000 C   0  0  0  0  0  0  0  0  0  0  0  0
    3.5724   -0.4125    0.0000 C   0  0  0  0  0  0  0  0  0  0  0  0
    4.2868   -0.0000    0.0000 Cl  0  0  0  0  0  0  0  0  0  0  0  0
    3.5724   -1.2375    0.0000 C   0  0  0  0  0  0  0  0  0  0  0  0
    2.8579   -1.6500    0.0000 C   0  0  0  0  0  0  0  0  0  0  0  0
    2.8579   -0.8250    0.0000 H   0  0  0  0  0  0  0  0  0  0  0  0
    2.1434   -1.2375    0.0000 C   0  0  0  0  0  0  0  0  0  0  0  0
    4.3974   -1.2398    0.0000 H   0  0  0  0  0  0  0  0  0  0  0  0
    2.8579    0.8250    0.0000 H   0  0  0  0  0  0  0  0  0  0  0  0
  1  2  2  0  0  0  0
  2  3  1  0  0  0  0
  3  4  1  0  0  0  0
  4  5  2  0  0  0  0
  5  6  1  0  0  0  0
  5  7  1  0  0  0  0
  7  8  2  0  0  0  0
  8  9  1  0  0  0  0
  8 10  1  0  0  0  0
 10 11  2  0  0  0  0
 11 12  1  0  0  0  0
 12 13  2  0  0  0  0
 13 14  1  0  0  0  0
 14 15  1  0  0  0  0
 14 16  2  0  0  0  0
  4 16  1  0  0  0  0
 10 16  1  0  0  0  0
 13 17  1  0  0  0  0
 12 18  1  0  0  0  0
 11 19  1  0  0  0  0
  3 20  1  0  0  0  0
  2 21  1  0  0  0  0
 21 22  1  0  0  0  0
 22 23  1  0  0  0  0
 23 24  1  0  0  0  0
 24 25  4  0  0  0  0
 25 26  1  0  0  0  0
 25 27  4  0  0  0  0
 27 28  1  0  0  0  0
 27 29  4  0  0  0  0
 29 30  2  0  0  0  0
 29 31  4  0  0  0  0
 31 32  1  0  0  0  0
 31 33  4  0  0  0  0
 24 33  4  0  0  0  0
 33 34  2  0  0  0  0
 23 35  1  0  0  0  0
 22 36  1  0  0  0  0
 22 37  1  0  0  0  0
 21 38  1  0  0  0  0
 38 39  1  0  0  0  0
 38 40  1  0  0  0  0
 38 41  1  0  0  0  0
 41 42  1  0  0  0  0
 41 43  1  0  0  0  0
 41 44  1  0  0  0  0
 44 45  1  0  0  0  0
 45 46  2  0  0  0  0
 46 47  1  0  0  0  0
 47 48  1  0  0  0  0
 47 49  2  0  0  0  0
 49 50  1  0  0  0  0
 50 51  1  0  0  0  0
 50 52  2  0  0  0  0
 21 52  1  0  0  0  0
 45 52  1  0  0  0  0
 49 53  1  0  0  0  0
 46 54  1  0  0  0  0
M  END
> <Potency>
5.35848282460628

> <pIC50>
5.270958156981074

> <Outcome>
Active

> <is_active>
1

$$$$

  Mrv1921 08232120312D          

 57 61  0  0  0  0            999 V2000
   -4.2380   -5.7750    0.0000 C   0  0  0  0  0  0  0  0  0  0  0  0
   -3.4130   -5.7750    0.0000 C   0  0  0  0  0  0  0  0  0  0  0  0
   -2.9280   -6.4424    0.0000 N   0  0  0  0  0  0  0  0  0  0  0  0
   -2.1434   -6.1875    0.0000 C   0  0  0  0  0  0  0  0  0  0  0  0
   -2.1434   -5.3625    0.0000 N   0  0  0  0  0  0  0  0  0  0  0  0
   -1.4289   -4.9500    0.0000 C   0  0  0  0  0  0  0  0  0  0  0  0
   -0.7145   -5.3625    0.0000 C   0  0  0  0  0  0  0  0  0  0  0  0
    0.0000   -4.9500    0.0000 C   0  0  0  0  0  0  0  0  0  0  0  0
    0.7145   -5.3625    0.0000 O   0  0  0  0  0  0  0  0  0  0  0  0
    0.0000   -4.1250    0.0000 N   0  0  0  0  0  0  0  0  0  0  0  0
    0.7145   -3.7125    0.0000 C   0  0  0  0  0  0  0  0  0  0  0  0
    0.7145   -2.8875    0.0000 C   0  0  0  0  0  0  0  0  0  0  0  0
    0.0000   -2.4750    0.0000 O   0  0  0  0  0  0  0  0  0  0  0  0
    1.4289   -2.4750    0.0000 N   0  0  0  0  0  0  0  0  0  0  0  0
    1.4289   -1.6500    0.0000 C   0  0  0  0  0  0  0  0  0  0  0  0
    0.7145   -1.2375    0.0000 C   0  0  0  0  0  0  0  0  0  0  0  0
    0.0000   -1.6500    0.0000 H   0  0  0  0  0  0  0  0  0  0  0  0
    0.7145   -0.4125    0.0000 N   0  0  0  0  0  0  0  0  0  0  0  0
    1.4289    0.0000    0.0000 C   0  0  0  0  0  0  0  0  0  0  0  0
    1.4289    0.8250    0.0000 H   0  0  0  0  0  0  0  0  0  0  0  0
    2.1434   -0.4125    0.0000 C   0  0  0  0  0  0  0  0  0  0  0  0
    2.8579    0.0000    0.0000 C   0  0  0  0  0  0  0  0  0  0  0  0
    3.5724   -0.4125    0.0000 C   0  0  0  0  0  0  0  0  0  0  0  0
    3.5724   -1.2375    0.0000 C   0  0  0  0  0  0  0  0  0  0  0  0
    2.8579   -1.6500    0.0000 C   0  0  0  0  0  0  0  0  0  0  0  0
    2.8579   -2.4750    0.0000 H   0  0  0  0  0  0  0  0  0  0  0  0
    2.1434   -1.2375    0.0000 C   0  0  0  0  0  0  0  0  0  0  0  0
    4.2868   -1.6500    0.0000 H   0  0  0  0  0  0  0  0  0  0  0  0
    4.2868   -0.0000    0.0000 H   0  0  0  0  0  0  0  0  0  0  0  0
    2.8579    0.8250    0.0000 H   0  0  0  0  0  0  0  0  0  0  0  0
    2.1434   -2.8875    0.0000 H   0  0  0  0  0  0  0  0  0  0  0  0
    1.4289   -4.1250    0.0000 C   0  0  0  0  0  0  0  0  0  0  0  0
    2.1434   -3.7125    0.0000 C   0  0  0  0  0  0  0  0  0  0  0  0
    1.4289   -3.3000    0.0000 H   0  0  0  0  0  0  0  0  0  0  0  0
    2.8579   -4.1250    0.0000 C   0  0  0  0  0  0  0  0  0  0  0  0
    3.5724   -3.7125    0.0000 H   0  0  0  0  0  0  0  0  0  0  0  0
    2.8579   -4.9500    0.0000 C   0  0  0  0  0  0  0  0  0  0  0  0
    3.5724   -5.3625    0.0000 H   0  0  0  0  0  0  0  0  0  0  0  0
    2.1434   -5.3625    0.0000 C   0  0  0  0  0  0  0  0  0  0  0  0
    2.1434   -6.1875    0.0000 Cl  0  0  0  0  0  0  0  0  0  0  0  0
    1.4289   -4.9500    0.0000 C   0  0  0  0  0  0  0  0  0  0  0  0
    0.7145   -4.5375    0.0000 H   0  0  0  0  0  0  0  0  0  0  0  0
    0.0000   -3.3000    0.0000 H   0  0  0  0  0  0  0  0  0  0  0  0
   -0.7145   -3.7125    0.0000 H   0  0  0  0  0  0  0  0  0  0  0  0
   -0.7145   -6.1875    0.0000 C   0  0  0  0  0  0  0  0  0  0  0  0
   -1.4289   -6.6000    0.0000 C   0  0  0  0  0  0  0  0  0  0  0  0
   -2.0426   -7.1514    0.0000 H   0  0  0  0  0  0  0  0  0  0  0  0
   -1.5287   -7.4189    0.0000 H   0  0  0  0  0  0  0  0  0  0  0  0
   -0.5712   -7.0000    0.0000 H   0  0  0  0  0  0  0  0  0  0  0  0
   -0.0825   -6.7178    0.0000 H   0  0  0  0  0  0  0  0  0  0  0  0
    0.0000   -5.7750    0.0000 H   0  0  0  0  0  0  0  0  0  0  0  0
   -1.0587   -4.2128    0.0000 H   0  0  0  0  0  0  0  0  0  0  0  0
   -1.7992   -4.2128    0.0000 H   0  0  0  0  0  0  0  0  0  0  0  0
   -2.9280   -5.1076    0.0000 N   0  0  0  0  0  0  0  0  0  0  0  0
   -4.2380   -4.9500    0.0000 H   0  0  0  0  0  0  0  0  0  0  0  0
   -5.0630   -5.7750    0.0000 H   0  0  0  0  0  0  0  0  0  0  0  0
   -4.2380   -6.6000    0.0000 H   0  0  0  0  0  0  0  0  0  0  0  0
  1  2  1  0  0  0  0
  2  3  1  0  0  0  0
  3  4  2  0  0  0  0
  4  5  1  0  0  0  0
  5  6  1  0  0  0  0
  6  7  1  0  0  0  0
  7  8  1  0  0  0  0
  8  9  2  0  0  0  0
  8 10  1  0  0  0  0
 10 11  1  0  0  0  0
 11 12  1  0  0  0  0
 12 13  2  0  0  0  0
 12 14  1  0  0  0  0
 14 15  1  0  0  0  0
 15 16  2  0  0  0  0
 16 17  1  0  0  0  0
 16 18  1  0  0  0  0
 18 19  2  0  0  0  0
 19 20  1  0  0  0  0
 19 21  1  0  0  0  0
 21 22  2  0  0  0  0
 22 23  1  0  0  0  0
 23 24  2  0  0  0  0
 24 25  1  0  0  0  0
 25 26  1  0  0  0  0
 25 27  2  0  0  0  0
 15 27  1  0  0  0  0
 21 27  1  0  0  0  0
 24 28  1  0  0  0  0
 23 29  1  0  0  0  0
 22 30  1  0  0  0  0
 14 31  1  0  0  0  0
 11 32  1  0  0  0  0
 32 33  2  0  0  0  0
 33 34  1  0  0  0  0
 33 35  1  0  0  0  0
 35 36  1  0  0  0  0
 35 37  2  0  0  0  0
 37 38  1  0  0  0  0
 37 39  1  0  0  0  0
 39 40  1  0  0  0  0
 39 41  2  0  0  0  0
 32 41  1  0  0  0  0
 41 42  1  0  0  0  0
 11 43  1  0  0  0  0
 10 44  1  0  0  0  0
  7 45  1  0  0  0  0
 45 46  1  0  0  0  0
  4 46  1  0  0  0  0
 46 47  1  0  0  0  0
 46 48  1  0  0  0  0
 45 49  1  0  0  0  0
 45 50  1  0  0  0  0
  7 51  1  0  0  0  0
  6 52  1  0  0  0  0
  6 53  1  0  0  0  0
  5 54  1  0  0  0  0
  2 54  2  0  0  0  0
  1 55  1  0  0  0  0
  1 56  1  0  0  0  0
  1 57  1  0  0  0  0
M  END
> <Potency>
4.98466083335619

> <pIC50>
5.302364386642791

> <Outcome>
Active

> <is_active>
1

$$$$

  Mrv1921 08232120312D          

 64 69  0  0  0  0            999 V2000
    2.6619   -0.5385    0.0000 N   0  0  0  0  0  0  0  0  0  0  0  0
    2.1316   -1.1705    0.0000 C   0  0  0  0  0  0  0  0  0  0  0  0
    1.3191   -1.0272    0.0000 O   0  0  0  0  0  0  0  0  0  0  0  0
    2.4138   -1.9457    0.0000 C   0  0  0  0  0  0  0  0  0  0  0  0
    1.8835   -2.5777    0.0000 C   0  0  0  0  0  0  0  0  0  0  0  0
    1.2217   -2.0850    0.0000 H   0  0  0  0  0  0  0  0  0  0  0  0
    1.0931   -2.8143    0.0000 H   0  0  0  0  0  0  0  0  0  0  0  0
    2.1656   -3.3529    0.0000 C   0  0  0  0  0  0  0  0  0  0  0  0
    1.7783   -4.0814    0.0000 N   0  0  0  0  0  0  0  0  0  0  0  0
    2.3514   -4.6748    0.0000 C   0  0  0  0  0  0  0  0  0  0  0  0
    3.0929   -4.3132    0.0000 N   0  0  0  0  0  0  0  0  0  0  0  0
    2.9781   -3.4962    0.0000 C   0  0  0  0  0  0  0  0  0  0  0  0
    3.5084   -2.8642    0.0000 C   0  0  0  0  0  0  0  0  0  0  0  0
    4.1701   -3.3569    0.0000 H   0  0  0  0  0  0  0  0  0  0  0  0
    4.2987   -2.6276    0.0000 H   0  0  0  0  0  0  0  0  0  0  0  0
    3.2262   -2.0890    0.0000 N   0  0  0  0  0  0  0  0  0  0  0  0
    3.7565   -1.4570    0.0000 C   0  0  0  0  0  0  0  0  0  0  0  0
    3.4744   -0.6817    0.0000 O   0  0  0  0  0  0  0  0  0  0  0  0
    4.5690   -1.6002    0.0000 C   0  0  0  0  0  0  0  0  0  0  0  0
    5.0993   -0.9683    0.0000 C   0  0  0  0  0  0  0  0  0  0  0  0
    5.6296   -1.6002    0.0000 C   0  0  0  0  0  0  0  0  0  0  0  0
    6.4421   -1.4570    0.0000 O   0  0  0  0  0  0  0  0  0  0  0  0
    5.3474   -2.3755    0.0000 N   0  0  0  0  0  0  0  0  0  0  0  0
    5.8777   -3.0075    0.0000 C   0  0  0  0  0  0  0  0  0  0  0  0
    6.6902   -2.8642    0.0000 C   0  0  0  0  0  0  0  0  0  0  0  0
    6.9724   -2.0890    0.0000 H   0  0  0  0  0  0  0  0  0  0  0  0
    7.2205   -3.4962    0.0000 N   0  0  0  0  0  0  0  0  0  0  0  0
    6.9383   -4.2715    0.0000 C   0  0  0  0  0  0  0  0  0  0  0  0
    7.4686   -4.9034    0.0000 H   0  0  0  0  0  0  0  0  0  0  0  0
    6.1259   -4.4147    0.0000 C   0  0  0  0  0  0  0  0  0  0  0  0
    5.8437   -5.1900    0.0000 C   0  0  0  0  0  0  0  0  0  0  0  0
    5.0312   -5.3332    0.0000 C   0  0  0  0  0  0  0  0  0  0  0  0
    4.5009   -4.7012    0.0000 C   0  0  0  0  0  0  0  0  0  0  0  0
    4.7831   -3.9260    0.0000 C   0  0  0  0  0  0  0  0  0  0  0  0
    5.3134   -4.5580    0.0000 H   0  0  0  0  0  0  0  0  0  0  0  0
    5.5956   -3.7827    0.0000 C   0  0  0  0  0  0  0  0  0  0  0  0
    3.6885   -4.8445    0.0000 H   0  0  0  0  0  0  0  0  0  0  0  0
    4.7491   -6.1085    0.0000 H   0  0  0  0  0  0  0  0  0  0  0  0
    6.3740   -5.8219    0.0000 H   0  0  0  0  0  0  0  0  0  0  0  0
    5.0177   -3.1318    0.0000 H   0  0  0  0  0  0  0  0  0  0  0  0
    4.3848   -0.5558    0.0000 C   0  0  0  0  0  0  0  0  0  0  0  0
    4.2265   -1.3654    0.0000 H   0  0  0  0  0  0  0  0  0  0  0  0
    5.0993   -0.1433    0.0000 H   0  0  0  0  0  0  0  0  0  0  0  0
    4.3848    0.2692    0.0000 C   0  0  0  0  0  0  0  0  0  0  0  0
    3.9315    0.9585    0.0000 H   0  0  0  0  0  0  0  0  0  0  0  0
    3.5612    0.3172    0.0000 H   0  0  0  0  0  0  0  0  0  0  0  0
    5.0993    0.6817    0.0000 O   0  0  0  0  0  0  0  0  0  0  0  0
    5.8138    0.2692    0.0000 C   0  0  0  0  0  0  0  0  0  0  0  0
    6.5282    0.6817    0.0000 C   0  0  0  0  0  0  0  0  0  0  0  0
    7.2427    0.2692    0.0000 C   0  0  0  0  0  0  0  0  0  0  0  0
    7.2427   -0.5558    0.0000 C   0  0  0  0  0  0  0  0  0  0  0  0
    7.9572   -0.9683    0.0000 Cl  0  0  0  0  0  0  0  0  0  0  0  0
    6.5282   -0.9683    0.0000 C   0  0  0  0  0  0  0  0  0  0  0  0
    7.2040   -1.4415    0.0000 H   0  0  0  0  0  0  0  0  0  0  0  0
    5.8138   -0.5558    0.0000 C   0  0  0  0  0  0  0  0  0  0  0  0
    7.9572    0.6817    0.0000 H   0  0  0  0  0  0  0  0  0  0  0  0
    6.5282    1.5067    0.0000 H   0  0  0  0  0  0  0  0  0  0  0  0
    4.4732   -2.4197    0.0000 H   0  0  0  0  0  0  0  0  0  0  0  0
    5.1691   -2.1664    0.0000 H   0  0  0  0  0  0  0  0  0  0  0  0
    2.2081   -5.4873    0.0000 H   0  0  0  0  0  0  0  0  0  0  0  0
    0.9613   -4.1962    0.0000 H   0  0  0  0  0  0  0  0  0  0  0  0
    2.9441   -1.3137    0.0000 H   0  0  0  0  0  0  0  0  0  0  0  0
    2.7577    0.2809    0.0000 H   0  0  0  0  0  0  0  0  0  0  0  0
    2.0618    0.0277    0.0000 H   0  0  0  0  0  0  0  0  0  0  0  0
  1  2  1  0  0  0  0
  2  3  2  0  0  0  0
  2  4  1  0  0  0  0
  4  5  1  0  0  0  0
  5  6  1  0  0  0  0
  5  7  1  0  0  0  0
  5  8  1  0  0  0  0
  8  9  1  0  0  0  0
  9 10  1  0  0  0  0
 10 11  2  0  0  0  0
 11 12  1  0  0  0  0
  8 12  2  0  0  0  0
 12 13  1  0  0  0  0
 13 14  1  0  0  0  0
 13 15  1  0  0  0  0
 13 16  1  0  0  0  0
  4 16  1  0  0  0  0
 16 17  1  0  0  0  0
 17 18  2  0  0  0  0
 17 19  1  0  0  0  0
 19 20  1  0  0  0  0
 20 21  1  0  0  0  0
 21 22  2  0  0  0  0
 21 23  1  0  0  0  0
 23 24  1  0  0  0  0
 24 25  2  0  0  0  0
 25 26  1  0  0  0  0
 25 27  1  0  0  0  0
 27 28  2  0  0  0  0
 28 29  1  0  0  0  0
 28 30  1  0  0  0  0
 30 31  2  0  0  0  0
 31 32  1  0  0  0  0
 32 33  2  0  0  0  0
 33 34  1  0  0  0  0
 34 35  1  0  0  0  0
 34 36  2  0  0  0  0
 24 36  1  0  0  0  0
 30 36  1  0  0  0  0
 33 37  1  0  0  0  0
 32 38  1  0  0  0  0
 31 39  1  0  0  0  0
 23 40  1  0  0  0  0
 20 41  1  0  0  0  0
 41 42  1  0  0  0  0
 41 43  1  0  0  0  0
 41 44  1  0  0  0  0
 44 45  1  0  0  0  0
 44 46  1  0  0  0  0
 44 47  1  0  0  0  0
 47 48  1  0  0  0  0
 48 49  2  0  0  0  0
 49 50  1  0  0  0  0
 50 51  2  0  0  0  0
 51 52  1  0  0  0  0
 51 53  1  0  0  0  0
 53 54  1  0  0  0  0
 53 55  2  0  0  0  0
 20 55  1  0  0  0  0
 48 55  1  0  0  0  0
 50 56  1  0  0  0  0
 49 57  1  0  0  0  0
 19 58  1  0  0  0  0
 19 59  1  0  0  0  0
 10 60  1  0  0  0  0
  9 61  1  0  0  0  0
  4 62  1  0  0  0  0
  1 63  1  0  0  0  0
  1 64  1  0  0  0  0
M  END
> <Potency>
9.27784688449031

> <pIC50>
5.0325527990698635

> <Outcome>
Active

> <is_active>
1

$$$$

  Mrv1921 08232120312D          

 56 59  0  0  0  0            999 V2000
    2.3264   -7.7120    0.0000 C   0  0  0  0  0  0  0  0  0  0  0  0
    1.8414   -7.0445    0.0000 N   0  0  0  0  0  0  0  0  0  0  0  0
    1.0164   -7.0445    0.0000 C   0  0  0  0  0  0  0  0  0  0  0  0
    0.2749   -7.4062    0.0000 H   0  0  0  0  0  0  0  0  0  0  0  0
    0.9016   -7.8615    0.0000 H   0  0  0  0  0  0  0  0  0  0  0  0
    0.7615   -6.2599    0.0000 C   0  0  0  0  0  0  0  0  0  0  0  0
    0.1884   -5.6665    0.0000 H   0  0  0  0  0  0  0  0  0  0  0  0
   -0.0510   -6.4032    0.0000 H   0  0  0  0  0  0  0  0  0  0  0  0
    1.4289   -5.7750    0.0000 C   0  0  0  0  0  0  0  0  0  0  0  0
    1.4289   -4.9500    0.0000 C   0  0  0  0  0  0  0  0  0  0  0  0
    2.1434   -4.5375    0.0000 O   0  0  0  0  0  0  0  0  0  0  0  0
    0.7145   -4.5375    0.0000 N   0  0  0  0  0  0  0  0  0  0  0  0
    0.7145   -3.7125    0.0000 C   0  0  0  0  0  0  0  0  0  0  0  0
    1.5395   -3.7125    0.0000 C   0  0  0  0  0  0  0  0  0  0  0  0
    1.5395   -4.5375    0.0000 H   0  0  0  0  0  0  0  0  0  0  0  0
    2.3645   -3.7125    0.0000 H   0  0  0  0  0  0  0  0  0  0  0  0
    1.5395   -2.8875    0.0000 H   0  0  0  0  0  0  0  0  0  0  0  0
    0.7145   -2.8875    0.0000 C   0  0  0  0  0  0  0  0  0  0  0  0
    0.0000   -2.4750    0.0000 O   0  0  0  0  0  0  0  0  0  0  0  0
    1.4289   -2.4750    0.0000 N   0  0  0  0  0  0  0  0  0  0  0  0
    1.4289   -1.6500    0.0000 C   0  0  0  0  0  0  0  0  0  0  0  0
    0.7145   -1.2375    0.0000 C   0  0  0  0  0  0  0  0  0  0  0  0
    0.0000   -1.6500    0.0000 H   0  0  0  0  0  0  0  0  0  0  0  0
    0.7145   -0.4125    0.0000 N   0  0  0  0  0  0  0  0  0  0  0  0
    1.4289    0.0000    0.0000 C   0  0  0  0  0  0  0  0  0  0  0  0
    1.4289    0.8250    0.0000 H   0  0  0  0  0  0  0  0  0  0  0  0
    2.1434   -0.4125    0.0000 C   0  0  0  0  0  0  0  0  0  0  0  0
    2.8579    0.0000    0.0000 C   0  0  0  0  0  0  0  0  0  0  0  0
    3.5724   -0.4125    0.0000 C   0  0  0  0  0  0  0  0  0  0  0  0
    3.5724   -1.2375    0.0000 C   0  0  0  0  0  0  0  0  0  0  0  0
    2.8579   -1.6500    0.0000 C   0  0  0  0  0  0  0  0  0  0  0  0
    3.3858   -2.2839    0.0000 H   0  0  0  0  0  0  0  0  0  0  0  0
    2.1434   -1.2375    0.0000 C   0  0  0  0  0  0  0  0  0  0  0  0
    4.2868   -1.6500    0.0000 H   0  0  0  0  0  0  0  0  0  0  0  0
    4.2868   -0.0000    0.0000 H   0  0  0  0  0  0  0  0  0  0  0  0
    2.8579    0.8250    0.0000 H   0  0  0  0  0  0  0  0  0  0  0  0
    2.2469   -2.3673    0.0000 H   0  0  0  0  0  0  0  0  0  0  0  0
   -0.1105   -3.7125    0.0000 C   0  0  0  0  0  0  0  0  0  0  0  0
   -0.5230   -4.4270    0.0000 C   0  0  0  0  0  0  0  0  0  0  0  0
   -0.8387   -5.1892    0.0000 H   0  0  0  0  0  0  0  0  0  0  0  0
   -1.3480   -4.4270    0.0000 C   0  0  0  0  0  0  0  0  0  0  0  0
   -2.0486   -4.8626    0.0000 H   0  0  0  0  0  0  0  0  0  0  0  0
   -1.7605   -3.7125    0.0000 C   0  0  0  0  0  0  0  0  0  0  0  0
   -2.5855   -3.7125    0.0000 Cl  0  0  0  0  0  0  0  0  0  0  0  0
   -1.3480   -2.9980    0.0000 C   0  0  0  0  0  0  0  0  0  0  0  0
   -1.7605   -2.2836    0.0000 Cl  0  0  0  0  0  0  0  0  0  0  0  0
   -0.5230   -2.9980    0.0000 C   0  0  0  0  0  0  0  0  0  0  0  0
   -0.8387   -2.2358    0.0000 H   0  0  0  0  0  0  0  0  0  0  0  0
    0.0000   -4.9500    0.0000 H   0  0  0  0  0  0  0  0  0  0  0  0
    2.1640   -5.4005    0.0000 H   0  0  0  0  0  0  0  0  0  0  0  0
    2.0964   -6.2599    0.0000 C   0  0  0  0  0  0  0  0  0  0  0  0
    2.7902   -6.7062    0.0000 H   0  0  0  0  0  0  0  0  0  0  0  0
    2.9082   -6.1131    0.0000 H   0  0  0  0  0  0  0  0  0  0  0  0
    1.6589   -8.1969    0.0000 H   0  0  0  0  0  0  0  0  0  0  0  0
    2.8113   -8.3794    0.0000 H   0  0  0  0  0  0  0  0  0  0  0  0
    2.9938   -7.2271    0.0000 H   0  0  0  0  0  0  0  0  0  0  0  0
  1  2  1  0  0  0  0
  2  3  1  0  0  0  0
  3  4  1  0  0  0  0
  3  5  1  0  0  0  0
  3  6  1  0  0  0  0
  6  7  1  0  0  0  0
  6  8  1  0  0  0  0
  6  9  1  0  0  0  0
  9 10  1  0  0  0  0
 10 11  2  0  0  0  0
 10 12  1  0  0  0  0
 12 13  1  0  0  0  0
 13 14  1  0  0  0  0
 14 15  1  0  0  0  0
 14 16  1  0  0  0  0
 14 17  1  0  0  0  0
 13 18  1  0  0  0  0
 18 19  2  0  0  0  0
 18 20  1  0  0  0  0
 20 21  1  0  0  0  0
 21 22  2  0  0  0  0
 22 23  1  0  0  0  0
 22 24  1  0  0  0  0
 24 25  2  0  0  0  0
 25 26  1  0  0  0  0
 25 27  1  0  0  0  0
 27 28  2  0  0  0  0
 28 29  1  0  0  0  0
 29 30  2  0  0  0  0
 30 31  1  0  0  0  0
 31 32  1  0  0  0  0
 31 33  2  0  0  0  0
 21 33  1  0  0  0  0
 27 33  1  0  0  0  0
 30 34  1  0  0  0  0
 29 35  1  0  0  0  0
 28 36  1  0  0  0  0
 20 37  1  0  0  0  0
 13 38  1  0  0  0  0
 38 39  2  0  0  0  0
 39 40  1  0  0  0  0
 39 41  1  0  0  0  0
 41 42  1  0  0  0  0
 41 43  2  0  0  0  0
 43 44  1  0  0  0  0
 43 45  1  0  0  0  0
 45 46  1  0  0  0  0
 45 47  2  0  0  0  0
 38 47  1  0  0  0  0
 47 48  1  0  0  0  0
 12 49  1  0  0  0  0
  9 50  1  0  0  0  0
  9 51  1  0  0  0  0
  2 51  1  0  0  0  0
 51 52  1  0  0  0  0
 51 53  1  0  0  0  0
  1 54  1  0  0  0  0
  1 55  1  0  0  0  0
  1 56  1  0  0  0  0
M  END
> <Potency>
2.86720295089814

> <pIC50>
5.542541565045967

> <Outcome>
Active

> <is_active>
1

$$$$

  Mrv1921 08232120312D          

 48 51  0  0  0  0            999 V2000
    0.4185    1.4084    0.0000 O   0  0  0  0  0  0  0  0  0  0  0  0
    1.1330    0.9959    0.0000 C   0  0  0  0  0  0  0  0  0  0  0  0
    1.9299    1.2094    0.0000 C   0  0  0  0  0  0  0  0  0  0  0  0
    2.6444    1.6219    0.0000 H   0  0  0  0  0  0  0  0  0  0  0  0
    1.9299    2.0344    0.0000 H   0  0  0  0  0  0  0  0  0  0  0  0
    2.1434    0.4125    0.0000 C   0  0  0  0  0  0  0  0  0  0  0  0
    2.8579    0.0000    0.0000 O   0  0  0  0  0  0  0  0  0  0  0  0
    3.5724    0.4125    0.0000 C   0  0  0  0  0  0  0  0  0  0  0  0
    3.5724    1.2375    0.0000 C   0  0  0  0  0  0  0  0  0  0  0  0
    2.8579    1.6500    0.0000 H   0  0  0  0  0  0  0  0  0  0  0  0
    4.2868    1.6500    0.0000 C   0  0  0  0  0  0  0  0  0  0  0  0
    4.2868    2.4750    0.0000 Cl  0  0  0  0  0  0  0  0  0  0  0  0
    5.0013    1.2375    0.0000 C   0  0  0  0  0  0  0  0  0  0  0  0
    5.7158    1.6500    0.0000 H   0  0  0  0  0  0  0  0  0  0  0  0
    5.0013    0.4125    0.0000 C   0  0  0  0  0  0  0  0  0  0  0  0
    5.7158    0.0000    0.0000 O   0  0  0  0  0  0  0  0  0  0  0  0
    6.4302    0.4125    0.0000 C   0  0  0  0  0  0  0  0  0  0  0  0
    7.1447    0.0000    0.0000 C   0  0  0  0  0  0  0  0  0  0  0  0
    7.8592    0.4125    0.0000 N   0  0  0  0  0  0  0  0  0  0  0  0
    8.5737    0.0000    0.0000 C   0  0  0  0  0  0  0  0  0  0  0  0
    8.5737   -0.8250    0.0000 O   0  0  0  0  0  0  0  0  0  0  0  0
    9.2881    0.4125    0.0000 C   0  0  0  0  0  0  0  0  0  0  0  0
    9.2881    1.2375    0.0000 C   0  0  0  0  0  0  0  0  0  0  0  0
    8.5737    1.6500    0.0000 H   0  0  0  0  0  0  0  0  0  0  0  0
   10.0026    1.6500    0.0000 C   0  0  0  0  0  0  0  0  0  0  0  0
   10.0026    2.4750    0.0000 O   0  0  0  0  0  0  0  0  0  0  0  0
   10.7171    1.2375    0.0000 N   0  0  0  0  0  0  0  0  0  0  0  0
   11.4315    1.6500    0.0000 H   0  0  0  0  0  0  0  0  0  0  0  0
   10.7171    0.4125    0.0000 C   0  0  0  0  0  0  0  0  0  0  0  0
   11.4315    0.0000    0.0000 C   0  0  0  0  0  0  0  0  0  0  0  0
   11.4315   -0.8250    0.0000 C   0  0  0  0  0  0  0  0  0  0  0  0
   10.7171   -1.2375    0.0000 C   0  0  0  0  0  0  0  0  0  0  0  0
   10.0026   -0.8250    0.0000 C   0  0  0  0  0  0  0  0  0  0  0  0
    9.2881   -1.2375    0.0000 H   0  0  0  0  0  0  0  0  0  0  0  0
   10.0026    0.0000    0.0000 C   0  0  0  0  0  0  0  0  0  0  0  0
   10.7171   -2.0625    0.0000 H   0  0  0  0  0  0  0  0  0  0  0  0
   12.1460   -1.2375    0.0000 H   0  0  0  0  0  0  0  0  0  0  0  0
   12.1460    0.4125    0.0000 H   0  0  0  0  0  0  0  0  0  0  0  0
    7.8592    1.2375    0.0000 H   0  0  0  0  0  0  0  0  0  0  0  0
    6.7745   -0.7372    0.0000 H   0  0  0  0  0  0  0  0  0  0  0  0
    7.5150   -0.7372    0.0000 H   0  0  0  0  0  0  0  0  0  0  0  0
    6.8005    1.1497    0.0000 H   0  0  0  0  0  0  0  0  0  0  0  0
    6.0600    1.1497    0.0000 H   0  0  0  0  0  0  0  0  0  0  0  0
    4.2868    0.0000    0.0000 C   0  0  0  0  0  0  0  0  0  0  0  0
    4.2868   -0.8250    0.0000 H   0  0  0  0  0  0  0  0  0  0  0  0
    2.0357   -0.4054    0.0000 H   0  0  0  0  0  0  0  0  0  0  0  0
    1.3465    0.1990    0.0000 N   0  0  0  0  0  0  0  0  0  0  0  0
    0.6459   -0.2367    0.0000 H   0  0  0  0  0  0  0  0  0  0  0  0
  1  2  2  0  0  0  0
  2  3  1  0  0  0  0
  3  4  1  0  0  0  0
  3  5  1  0  0  0  0
  3  6  1  0  0  0  0
  6  7  1  0  0  0  0
  7  8  1  0  0  0  0
  8  9  2  0  0  0  0
  9 10  1  0  0  0  0
  9 11  1  0  0  0  0
 11 12  1  0  0  0  0
 11 13  2  0  0  0  0
 13 14  1  0  0  0  0
 13 15  1  0  0  0  0
 15 16  1  0  0  0  0
 16 17  1  0  0  0  0
 17 18  1  0  0  0  0
 18 19  1  0  0  0  0
 19 20  1  0  0  0  0
 20 21  2  0  0  0  0
 20 22  1  0  0  0  0
 22 23  4  0  0  0  0
 23 24  1  0  0  0  0
 23 25  4  0  0  0  0
 25 26  2  0  0  0  0
 25 27  4  0  0  0  0
 27 28  1  0  0  0  0
 27 29  4  0  0  0  0
 29 30  4  0  0  0  0
 30 31  4  0  0  0  0
 31 32  4  0  0  0  0
 32 33  4  0  0  0  0
 33 34  1  0  0  0  0
 33 35  4  0  0  0  0
 22 35  4  0  0  0  0
 29 35  4  0  0  0  0
 32 36  1  0  0  0  0
 31 37  1  0  0  0  0
 30 38  1  0  0  0  0
 19 39  1  0  0  0  0
 18 40  1  0  0  0  0
 18 41  1  0  0  0  0
 17 42  1  0  0  0  0
 17 43  1  0  0  0  0
 15 44  2  0  0  0  0
  8 44  1  0  0  0  0
 44 45  1  0  0  0  0
  6 46  1  0  0  0  0
  6 47  1  0  0  0  0
  2 47  1  0  0  0  0
 47 48  1  0  0  0  0
M  END
> <Potency>
1.10393292635693

> <pIC50>
5.957057313018044

> <Outcome>
Active

> <is_active>
1

$$$$

  Mrv1921 08232120312D          

 48 51  0  0  0  0            999 V2000
    4.5690   -1.6002    0.0000 C   0  0  0  0  0  0  0  0  0  0  0  0
    5.0993   -0.9683    0.0000 C   0  0  0  0  0  0  0  0  0  0  0  0
    5.6296   -1.6002    0.0000 C   0  0  0  0  0  0  0  0  0  0  0  0
    6.4421   -1.4570    0.0000 O   0  0  0  0  0  0  0  0  0  0  0  0
    5.3474   -2.3755    0.0000 N   0  0  0  0  0  0  0  0  0  0  0  0
    5.8777   -3.0075    0.0000 C   0  0  0  0  0  0  0  0  0  0  0  0
    6.6902   -2.8642    0.0000 C   0  0  0  0  0  0  0  0  0  0  0  0
    6.9724   -2.0890    0.0000 H   0  0  0  0  0  0  0  0  0  0  0  0
    7.2205   -3.4962    0.0000 N   0  0  0  0  0  0  0  0  0  0  0  0
    6.9383   -4.2715    0.0000 C   0  0  0  0  0  0  0  0  0  0  0  0
    7.4686   -4.9034    0.0000 H   0  0  0  0  0  0  0  0  0  0  0  0
    6.1259   -4.4147    0.0000 C   0  0  0  0  0  0  0  0  0  0  0  0
    5.8437   -5.1900    0.0000 C   0  0  0  0  0  0  0  0  0  0  0  0
    5.0312   -5.3332    0.0000 C   0  0  0  0  0  0  0  0  0  0  0  0
    4.5009   -4.7012    0.0000 C   0  0  0  0  0  0  0  0  0  0  0  0
    3.6885   -4.8445    0.0000 S   0  0  0  0  0  0  0  0  0  0  0  0
    2.8760   -4.9878    0.0000 C   0  0  0  0  0  0  0  0  0  0  0  0
    2.7327   -4.1753    0.0000 H   0  0  0  0  0  0  0  0  0  0  0  0
    2.0635   -5.1310    0.0000 H   0  0  0  0  0  0  0  0  0  0  0  0
    3.0193   -5.8002    0.0000 H   0  0  0  0  0  0  0  0  0  0  0  0
    3.8317   -5.6570    0.0000 O   0  0  0  0  0  0  0  0  0  0  0  0
    3.5452   -4.0320    0.0000 O   0  0  0  0  0  0  0  0  0  0  0  0
    4.7831   -3.9260    0.0000 C   0  0  0  0  0  0  0  0  0  0  0  0
    4.2528   -3.2940    0.0000 H   0  0  0  0  0  0  0  0  0  0  0  0
    5.5956   -3.7827    0.0000 C   0  0  0  0  0  0  0  0  0  0  0  0
    4.7491   -6.1085    0.0000 H   0  0  0  0  0  0  0  0  0  0  0  0
    6.3740   -5.8219    0.0000 H   0  0  0  0  0  0  0  0  0  0  0  0
    4.6753   -2.8538    0.0000 H   0  0  0  0  0  0  0  0  0  0  0  0
    4.3848   -0.5558    0.0000 C   0  0  0  0  0  0  0  0  0  0  0  0
    3.6122   -0.2665    0.0000 H   0  0  0  0  0  0  0  0  0  0  0  0
    5.0993   -0.1433    0.0000 H   0  0  0  0  0  0  0  0  0  0  0  0
    4.3848    0.2692    0.0000 N   0  0  0  0  0  0  0  0  0  0  0  0
    3.9431    0.9661    0.0000 H   0  0  0  0  0  0  0  0  0  0  0  0
    5.0993    0.6817    0.0000 C   0  0  0  0  0  0  0  0  0  0  0  0
    5.0993    1.5067    0.0000 O   0  0  0  0  0  0  0  0  0  0  0  0
    5.8138    0.2692    0.0000 C   0  0  0  0  0  0  0  0  0  0  0  0
    6.5282    0.6817    0.0000 C   0  0  0  0  0  0  0  0  0  0  0  0
    7.2427    0.2692    0.0000 C   0  0  0  0  0  0  0  0  0  0  0  0
    7.2427   -0.5558    0.0000 C   0  0  0  0  0  0  0  0  0  0  0  0
    7.9572   -0.9683    0.0000 Cl  0  0  0  0  0  0  0  0  0  0  0  0
    6.5282   -0.9683    0.0000 C   0  0  0  0  0  0  0  0  0  0  0  0
    7.2040   -1.4415    0.0000 H   0  0  0  0  0  0  0  0  0  0  0  0
    5.8138   -0.5558    0.0000 C   0  0  0  0  0  0  0  0  0  0  0  0
    7.9572    0.6817    0.0000 H   0  0  0  0  0  0  0  0  0  0  0  0
    6.5282    1.5067    0.0000 H   0  0  0  0  0  0  0  0  0  0  0  0
    3.9370   -1.0699    0.0000 H   0  0  0  0  0  0  0  0  0  0  0  0
    4.0387   -2.2322    0.0000 H   0  0  0  0  0  0  0  0  0  0  0  0
    5.2010   -2.1305    0.0000 H   0  0  0  0  0  0  0  0  0  0  0  0
  1  2  1  0  0  0  0
  2  3  1  0  0  0  0
  3  4  2  0  0  0  0
  3  5  1  0  0  0  0
  5  6  1  0  0  0  0
  6  7  2  0  0  0  0
  7  8  1  0  0  0  0
  7  9  1  0  0  0  0
  9 10  2  0  0  0  0
 10 11  1  0  0  0  0
 10 12  1  0  0  0  0
 12 13  2  0  0  0  0
 13 14  1  0  0  0  0
 14 15  2  0  0  0  0
 15 16  1  0  0  0  0
 16 17  1  0  0  0  0
 17 18  1  0  0  0  0
 17 19  1  0  0  0  0
 17 20  1  0  0  0  0
 16 21  2  0  0  0  0
 16 22  2  0  0  0  0
 15 23  1  0  0  0  0
 23 24  1  0  0  0  0
 23 25  2  0  0  0  0
  6 25  1  0  0  0  0
 12 25  1  0  0  0  0
 14 26  1  0  0  0  0
 13 27  1  0  0  0  0
  5 28  1  0  0  0  0
  2 29  1  0  0  0  0
 29 30  1  0  0  0  0
 29 31  1  0  0  0  0
 29 32  1  0  0  0  0
 32 33  1  0  0  0  0
 32 34  1  0  0  0  0
 34 35  2  0  0  0  0
 34 36  1  0  0  0  0
 36 37  2  0  0  0  0
 37 38  1  0  0  0  0
 38 39  2  0  0  0  0
 39 40  1  0  0  0  0
 39 41  1  0  0  0  0
 41 42  1  0  0  0  0
 41 43  2  0  0  0  0
  2 43  1  0  0  0  0
 36 43  1  0  0  0  0
 38 44  1  0  0  0  0
 37 45  1  0  0  0  0
  1 46  1  0  0  0  0
  1 47  1  0  0  0  0
  1 48  1  0  0  0  0
M  END
> <Potency>
6.62351524077128

> <pIC50>
5.178911460033853

> <Outcome>
Active

> <is_active>
1

$$$$

  Mrv1921 08232120312D          

 45 48  0  0  0  0            999 V2000
    1.4289    1.6500    0.0000 C   0  0  0  0  0  0  0  0  0  0  0  0
    2.1434    2.0625    0.0000 S   0  0  0  0  0  0  0  0  0  0  0  0
    2.5559    1.3480    0.0000 O   0  0  0  0  0  0  0  0  0  0  0  0
    1.7309    2.7770    0.0000 O   0  0  0  0  0  0  0  0  0  0  0  0
    2.8579    2.4750    0.0000 C   0  0  0  0  0  0  0  0  0  0  0  0
    2.8579    3.3000    0.0000 C   0  0  0  0  0  0  0  0  0  0  0  0
    2.1434    3.7125    0.0000 H   0  0  0  0  0  0  0  0  0  0  0  0
    3.5724    3.7125    0.0000 C   0  0  0  0  0  0  0  0  0  0  0  0
    3.5724    4.5375    0.0000 H   0  0  0  0  0  0  0  0  0  0  0  0
    4.2868    3.3000    0.0000 C   0  0  0  0  0  0  0  0  0  0  0  0
    5.0013    3.7125    0.0000 C   0  0  0  0  0  0  0  0  0  0  0  0
    5.7158    3.3000    0.0000 N   0  0  0  0  0  0  0  0  0  0  0  0
    5.7158    2.4750    0.0000 C   0  0  0  0  0  0  0  0  0  0  0  0
    5.0013    2.0625    0.0000 C   0  0  0  0  0  0  0  0  0  0  0  0
    5.0013    1.2375    0.0000 N   0  0  0  0  0  0  0  0  0  0  0  0
    5.7158    0.8250    0.0000 C   0  0  0  0  0  0  0  0  0  0  0  0
    6.4302    1.2375    0.0000 O   0  0  0  0  0  0  0  0  0  0  0  0
    5.7158    0.0000    0.0000 C   0  0  0  0  0  0  0  0  0  0  0  0
    6.4302   -0.4125    0.0000 C   0  0  0  0  0  0  0  0  0  0  0  0
    7.2538   -0.3645    0.0000 H   0  0  0  0  0  0  0  0  0  0  0  0
    6.8836    0.2768    0.0000 H   0  0  0  0  0  0  0  0  0  0  0  0
    6.4302   -1.2375    0.0000 N   0  0  0  0  0  0  0  0  0  0  0  0
    7.1447   -1.6500    0.0000 H   0  0  0  0  0  0  0  0  0  0  0  0
    5.7158   -1.6500    0.0000 C   0  0  0  0  0  0  0  0  0  0  0  0
    5.7158   -2.4750    0.0000 O   0  0  0  0  0  0  0  0  0  0  0  0
    5.0013   -1.2375    0.0000 C   0  0  0  0  0  0  0  0  0  0  0  0
    4.2868   -1.6500    0.0000 C   0  0  0  0  0  0  0  0  0  0  0  0
    3.5724   -1.2375    0.0000 C   0  0  0  0  0  0  0  0  0  0  0  0
    3.5724   -0.4125    0.0000 C   0  0  0  0  0  0  0  0  0  0  0  0
    2.8579    0.0000    0.0000 Cl  0  0  0  0  0  0  0  0  0  0  0  0
    4.2868    0.0000    0.0000 C   0  0  0  0  0  0  0  0  0  0  0  0
    4.2868   -0.8250    0.0000 H   0  0  0  0  0  0  0  0  0  0  0  0
    5.0013   -0.4125    0.0000 C   0  0  0  0  0  0  0  0  0  0  0  0
    2.8579   -1.6500    0.0000 H   0  0  0  0  0  0  0  0  0  0  0  0
    4.2868   -2.4750    0.0000 H   0  0  0  0  0  0  0  0  0  0  0  0
    5.0013    0.4125    0.0000 H   0  0  0  0  0  0  0  0  0  0  0  0
    4.2868    0.8250    0.0000 H   0  0  0  0  0  0  0  0  0  0  0  0
    4.2868    2.4750    0.0000 C   0  0  0  0  0  0  0  0  0  0  0  0
    3.5724    2.0625    0.0000 C   0  0  0  0  0  0  0  0  0  0  0  0
    3.5724    1.2375    0.0000 H   0  0  0  0  0  0  0  0  0  0  0  0
    6.4302    2.0625    0.0000 H   0  0  0  0  0  0  0  0  0  0  0  0
    5.0013    4.5375    0.0000 H   0  0  0  0  0  0  0  0  0  0  0  0
    1.0164    2.3645    0.0000 H   0  0  0  0  0  0  0  0  0  0  0  0
    0.7145    1.2375    0.0000 H   0  0  0  0  0  0  0  0  0  0  0  0
    1.8414    0.9355    0.0000 H   0  0  0  0  0  0  0  0  0  0  0  0
  1  2  1  0  0  0  0
  2  3  2  0  0  0  0
  2  4  2  0  0  0  0
  2  5  1  0  0  0  0
  5  6  2  0  0  0  0
  6  7  1  0  0  0  0
  6  8  1  0  0  0  0
  8  9  1  0  0  0  0
  8 10  2  0  0  0  0
 10 11  1  0  0  0  0
 11 12  2  0  0  0  0
 12 13  1  0  0  0  0
 13 14  2  0  0  0  0
 14 15  1  0  0  0  0
 15 16  1  0  0  0  0
 16 17  2  0  0  0  0
 16 18  1  0  0  0  0
 18 19  1  0  0  0  0
 19 20  1  0  0  0  0
 19 21  1  0  0  0  0
 19 22  1  0  0  0  0
 22 23  1  0  0  0  0
 22 24  1  0  0  0  0
 24 25  2  0  0  0  0
 24 26  1  0  0  0  0
 26 27  2  0  0  0  0
 27 28  1  0  0  0  0
 28 29  2  0  0  0  0
 29 30  1  0  0  0  0
 29 31  1  0  0  0  0
 31 32  1  0  0  0  0
 31 33  2  0  0  0  0
 18 33  1  0  0  0  0
 26 33  1  0  0  0  0
 28 34  1  0  0  0  0
 27 35  1  0  0  0  0
 18 36  1  0  0  0  0
 15 37  1  0  0  0  0
 14 38  1  0  0  0  0
 10 38  1  0  0  0  0
 38 39  2  0  0  0  0
  5 39  1  0  0  0  0
 39 40  1  0  0  0  0
 13 41  1  0  0  0  0
 11 42  1  0  0  0  0
  1 43  1  0  0  0  0
  1 44  1  0  0  0  0
  1 45  1  0  0  0  0
M  END
> <Potency>
2.74188670619666

> <pIC50>
5.561950494072447

> <Outcome>
Active

> <is_active>
1

$$$$

  Mrv1921 08232120312D          

 54 58  0  0  0  0            999 V2000
    4.4828   -6.8865    0.0000 N   0  0  0  0  0  0  0  0  0  0  0  0
    3.6704   -6.7433    0.0000 C   0  0  0  0  0  0  0  0  0  0  0  0
    2.8579   -6.6000    0.0000 C   0  0  0  0  0  0  0  0  0  0  0  0
    2.8579   -5.7750    0.0000 C   0  0  0  0  0  0  0  0  0  0  0  0
    2.1434   -5.3625    0.0000 S   0  0  0  0  0  0  0  0  0  0  0  0
    2.5559   -4.6480    0.0000 O   0  0  0  0  0  0  0  0  0  0  0  0
    1.7309   -6.0770    0.0000 O   0  0  0  0  0  0  0  0  0  0  0  0
    1.4289   -4.9500    0.0000 N   0  0  0  0  0  0  0  0  0  0  0  0
    0.7145   -5.3625    0.0000 C   0  0  0  0  0  0  0  0  0  0  0  0
    0.3442   -6.0997    0.0000 H   0  0  0  0  0  0  0  0  0  0  0  0
    1.0847   -6.0997    0.0000 H   0  0  0  0  0  0  0  0  0  0  0  0
    0.0000   -4.9500    0.0000 C   0  0  0  0  0  0  0  0  0  0  0  0
   -0.7145   -5.3625    0.0000 C   0  0  0  0  0  0  0  0  0  0  0  0
   -1.4289   -4.9500    0.0000 C   0  0  0  0  0  0  0  0  0  0  0  0
   -1.4289   -4.1250    0.0000 C   0  0  0  0  0  0  0  0  0  0  0  0
   -2.1434   -3.7125    0.0000 Cl  0  0  0  0  0  0  0  0  0  0  0  0
   -0.7145   -3.7125    0.0000 C   0  0  0  0  0  0  0  0  0  0  0  0
   -0.7145   -2.8875    0.0000 H   0  0  0  0  0  0  0  0  0  0  0  0
    0.0000   -4.1250    0.0000 C   0  0  0  0  0  0  0  0  0  0  0  0
    0.7145   -3.7125    0.0000 C   0  0  0  0  0  0  0  0  0  0  0  0
    0.7145   -2.8875    0.0000 C   0  0  0  0  0  0  0  0  0  0  0  0
    0.0000   -2.4750    0.0000 O   0  0  0  0  0  0  0  0  0  0  0  0
    1.4289   -2.4750    0.0000 N   0  0  0  0  0  0  0  0  0  0  0  0
    1.4289   -1.6500    0.0000 C   0  0  0  0  0  0  0  0  0  0  0  0
    0.7145   -1.2375    0.0000 C   0  0  0  0  0  0  0  0  0  0  0  0
    0.0000   -1.6500    0.0000 H   0  0  0  0  0  0  0  0  0  0  0  0
    0.7145   -0.4125    0.0000 N   0  0  0  0  0  0  0  0  0  0  0  0
    1.4289    0.0000    0.0000 C   0  0  0  0  0  0  0  0  0  0  0  0
    1.4289    0.8250    0.0000 H   0  0  0  0  0  0  0  0  0  0  0  0
    2.1434   -0.4125    0.0000 C   0  0  0  0  0  0  0  0  0  0  0  0
    2.8579    0.0000    0.0000 C   0  0  0  0  0  0  0  0  0  0  0  0
    3.5724   -0.4125    0.0000 C   0  0  0  0  0  0  0  0  0  0  0  0
    3.5724   -1.2375    0.0000 C   0  0  0  0  0  0  0  0  0  0  0  0
    2.8579   -1.6500    0.0000 C   0  0  0  0  0  0  0  0  0  0  0  0
    2.8579   -2.4750    0.0000 H   0  0  0  0  0  0  0  0  0  0  0  0
    2.1434   -1.2375    0.0000 C   0  0  0  0  0  0  0  0  0  0  0  0
    4.2868   -1.6500    0.0000 H   0  0  0  0  0  0  0  0  0  0  0  0
    4.2868   -0.0000    0.0000 H   0  0  0  0  0  0  0  0  0  0  0  0
    2.8579    0.8250    0.0000 H   0  0  0  0  0  0  0  0  0  0  0  0
    2.2539   -2.4750    0.0000 H   0  0  0  0  0  0  0  0  0  0  0  0
    1.4289   -3.3000    0.0000 H   0  0  0  0  0  0  0  0  0  0  0  0
    1.4289   -4.1250    0.0000 C   0  0  0  0  0  0  0  0  0  0  0  0
    2.2042   -4.4072    0.0000 H   0  0  0  0  0  0  0  0  0  0  0  0
    2.2042   -3.8428    0.0000 H   0  0  0  0  0  0  0  0  0  0  0  0
   -2.1434   -5.3625    0.0000 H   0  0  0  0  0  0  0  0  0  0  0  0
   -0.7145   -6.1875    0.0000 H   0  0  0  0  0  0  0  0  0  0  0  0
    3.6815   -5.7270    0.0000 H   0  0  0  0  0  0  0  0  0  0  0  0
    3.3112   -5.0857    0.0000 H   0  0  0  0  0  0  0  0  0  0  0  0
    2.5757   -7.3752    0.0000 C   0  0  0  0  0  0  0  0  0  0  0  0
    2.2490   -8.1328    0.0000 H   0  0  0  0  0  0  0  0  0  0  0  0
    3.1419   -7.9753    0.0000 H   0  0  0  0  0  0  0  0  0  0  0  0
    2.0454   -6.7433    0.0000 C   0  0  0  0  0  0  0  0  0  0  0  0
    1.2356   -6.9006    0.0000 H   0  0  0  0  0  0  0  0  0  0  0  0
    1.5637   -7.4130    0.0000 H   0  0  0  0  0  0  0  0  0  0  0  0
  1  2  3  0  0  0  0
  2  3  1  0  0  0  0
  3  4  1  0  0  0  0
  4  5  1  0  0  0  0
  5  6  2  0  0  0  0
  5  7  2  0  0  0  0
  5  8  1  0  0  0  0
  8  9  1  0  0  0  0
  9 10  1  0  0  0  0
  9 11  1  0  0  0  0
  9 12  1  0  0  0  0
 12 13  2  0  0  0  0
 13 14  1  0  0  0  0
 14 15  2  0  0  0  0
 15 16  1  0  0  0  0
 15 17  1  0  0  0  0
 17 18  1  0  0  0  0
 17 19  2  0  0  0  0
 12 19  1  0  0  0  0
 19 20  1  0  0  0  0
 20 21  1  0  0  0  0
 21 22  2  0  0  0  0
 21 23  1  0  0  0  0
 23 24  1  0  0  0  0
 24 25  2  0  0  0  0
 25 26  1  0  0  0  0
 25 27  1  0  0  0  0
 27 28  2  0  0  0  0
 28 29  1  0  0  0  0
 28 30  1  0  0  0  0
 30 31  2  0  0  0  0
 31 32  1  0  0  0  0
 32 33  2  0  0  0  0
 33 34  1  0  0  0  0
 34 35  1  0  0  0  0
 34 36  2  0  0  0  0
 24 36  1  0  0  0  0
 30 36  1  0  0  0  0
 33 37  1  0  0  0  0
 32 38  1  0  0  0  0
 31 39  1  0  0  0  0
 23 40  1  0  0  0  0
 20 41  1  0  0  0  0
 20 42  1  0  0  0  0
  8 42  1  0  0  0  0
 42 43  1  0  0  0  0
 42 44  1  0  0  0  0
 14 45  1  0  0  0  0
 13 46  1  0  0  0  0
  4 47  1  0  0  0  0
  4 48  1  0  0  0  0
  3 49  1  0  0  0  0
 49 50  1  0  0  0  0
 49 51  1  0  0  0  0
 49 52  1  0  0  0  0
  3 52  1  0  0  0  0
 52 53  1  0  0  0  0
 52 54  1  0  0  0  0
M  END
> <Potency>
0.0643076999490585

> <pIC50>
7.19173702326275

> <Outcome>
Active

> <is_active>
1

$$$$

  Mrv1921 08232120312D          

 60 64  0  0  0  0            999 V2000
    5.0013   -7.0125    0.0000 C   0  0  0  0  0  0  0  0  0  0  0  0
    4.2868   -6.6000    0.0000 N   0  0  0  0  0  0  0  0  0  0  0  0
    3.5724   -7.0125    0.0000 C   0  0  0  0  0  0  0  0  0  0  0  0
    3.2021   -7.7497    0.0000 H   0  0  0  0  0  0  0  0  0  0  0  0
    3.9426   -7.7497    0.0000 H   0  0  0  0  0  0  0  0  0  0  0  0
    2.8579   -6.6000    0.0000 C   0  0  0  0  0  0  0  0  0  0  0  0
    2.0343   -6.6480    0.0000 H   0  0  0  0  0  0  0  0  0  0  0  0
    2.4045   -7.2893    0.0000 H   0  0  0  0  0  0  0  0  0  0  0  0
    2.8579   -5.7750    0.0000 N   0  0  0  0  0  0  0  0  0  0  0  0
    2.1434   -5.3625    0.0000 S   0  0  0  0  0  0  0  0  0  0  0  0
    2.5559   -4.6480    0.0000 O   0  0  0  0  0  0  0  0  0  0  0  0
    1.7309   -6.0770    0.0000 O   0  0  0  0  0  0  0  0  0  0  0  0
    1.4289   -4.9500    0.0000 N   0  0  0  0  0  0  0  0  0  0  0  0
    0.7145   -5.3625    0.0000 C   0  0  0  0  0  0  0  0  0  0  0  0
    0.3442   -6.0997    0.0000 H   0  0  0  0  0  0  0  0  0  0  0  0
    1.0847   -6.0997    0.0000 H   0  0  0  0  0  0  0  0  0  0  0  0
    0.0000   -4.9500    0.0000 C   0  0  0  0  0  0  0  0  0  0  0  0
   -0.7145   -5.3625    0.0000 C   0  0  0  0  0  0  0  0  0  0  0  0
   -1.4289   -4.9500    0.0000 C   0  0  0  0  0  0  0  0  0  0  0  0
   -1.4289   -4.1250    0.0000 C   0  0  0  0  0  0  0  0  0  0  0  0
   -2.1434   -3.7125    0.0000 Cl  0  0  0  0  0  0  0  0  0  0  0  0
   -0.7145   -3.7125    0.0000 C   0  0  0  0  0  0  0  0  0  0  0  0
   -0.7145   -2.8875    0.0000 H   0  0  0  0  0  0  0  0  0  0  0  0
    0.0000   -4.1250    0.0000 C   0  0  0  0  0  0  0  0  0  0  0  0
    0.7145   -3.7125    0.0000 C   0  0  0  0  0  0  0  0  0  0  0  0
    0.7145   -2.8875    0.0000 C   0  0  0  0  0  0  0  0  0  0  0  0
    0.0000   -2.4750    0.0000 O   0  0  0  0  0  0  0  0  0  0  0  0
    1.4289   -2.4750    0.0000 N   0  0  0  0  0  0  0  0  0  0  0  0
    1.4289   -1.6500    0.0000 C   0  0  0  0  0  0  0  0  0  0  0  0
    0.7145   -1.2375    0.0000 C   0  0  0  0  0  0  0  0  0  0  0  0
    0.0000   -1.6500    0.0000 H   0  0  0  0  0  0  0  0  0  0  0  0
    0.7145   -0.4125    0.0000 N   0  0  0  0  0  0  0  0  0  0  0  0
    1.4289    0.0000    0.0000 C   0  0  0  0  0  0  0  0  0  0  0  0
    1.4289    0.8250    0.0000 H   0  0  0  0  0  0  0  0  0  0  0  0
    2.1434   -0.4125    0.0000 C   0  0  0  0  0  0  0  0  0  0  0  0
    2.8579    0.0000    0.0000 C   0  0  0  0  0  0  0  0  0  0  0  0
    3.5724   -0.4125    0.0000 C   0  0  0  0  0  0  0  0  0  0  0  0
    3.5724   -1.2375    0.0000 C   0  0  0  0  0  0  0  0  0  0  0  0
    2.8579   -1.6500    0.0000 C   0  0  0  0  0  0  0  0  0  0  0  0
    2.8579   -2.4750    0.0000 H   0  0  0  0  0  0  0  0  0  0  0  0
    2.1434   -1.2375    0.0000 C   0  0  0  0  0  0  0  0  0  0  0  0
    4.2868   -1.6500    0.0000 H   0  0  0  0  0  0  0  0  0  0  0  0
    4.2868   -0.0000    0.0000 H   0  0  0  0  0  0  0  0  0  0  0  0
    2.8579    0.8250    0.0000 H   0  0  0  0  0  0  0  0  0  0  0  0
    2.2539   -2.4750    0.0000 H   0  0  0  0  0  0  0  0  0  0  0  0
    1.4289   -3.3000    0.0000 H   0  0  0  0  0  0  0  0  0  0  0  0
    1.4289   -4.1250    0.0000 C   0  0  0  0  0  0  0  0  0  0  0  0
    2.2042   -4.4072    0.0000 H   0  0  0  0  0  0  0  0  0  0  0  0
    2.2042   -3.8428    0.0000 H   0  0  0  0  0  0  0  0  0  0  0  0
   -2.1434   -5.3625    0.0000 H   0  0  0  0  0  0  0  0  0  0  0  0
   -0.7145   -6.1875    0.0000 H   0  0  0  0  0  0  0  0  0  0  0  0
    3.5724   -5.3625    0.0000 C   0  0  0  0  0  0  0  0  0  0  0  0
    3.9426   -4.6253    0.0000 H   0  0  0  0  0  0  0  0  0  0  0  0
    3.2021   -4.6253    0.0000 H   0  0  0  0  0  0  0  0  0  0  0  0
    4.2868   -5.7750    0.0000 C   0  0  0  0  0  0  0  0  0  0  0  0
    5.1104   -5.7270    0.0000 H   0  0  0  0  0  0  0  0  0  0  0  0
    4.7402   -5.0857    0.0000 H   0  0  0  0  0  0  0  0  0  0  0  0
    4.5888   -7.7270    0.0000 H   0  0  0  0  0  0  0  0  0  0  0  0
    5.7158   -7.4250    0.0000 H   0  0  0  0  0  0  0  0  0  0  0  0
    5.4138   -6.2980    0.0000 H   0  0  0  0  0  0  0  0  0  0  0  0
  1  2  1  0  0  0  0
  2  3  1  0  0  0  0
  3  4  1  0  0  0  0
  3  5  1  0  0  0  0
  3  6  1  0  0  0  0
  6  7  1  0  0  0  0
  6  8  1  0  0  0  0
  6  9  1  0  0  0  0
  9 10  1  0  0  0  0
 10 11  2  0  0  0  0
 10 12  2  0  0  0  0
 10 13  1  0  0  0  0
 13 14  1  0  0  0  0
 14 15  1  0  0  0  0
 14 16  1  0  0  0  0
 14 17  1  0  0  0  0
 17 18  2  0  0  0  0
 18 19  1  0  0  0  0
 19 20  2  0  0  0  0
 20 21  1  0  0  0  0
 20 22  1  0  0  0  0
 22 23  1  0  0  0  0
 22 24  2  0  0  0  0
 17 24  1  0  0  0  0
 24 25  1  0  0  0  0
 25 26  1  0  0  0  0
 26 27  2  0  0  0  0
 26 28  1  0  0  0  0
 28 29  1  0  0  0  0
 29 30  2  0  0  0  0
 30 31  1  0  0  0  0
 30 32  1  0  0  0  0
 32 33  2  0  0  0  0
 33 34  1  0  0  0  0
 33 35  1  0  0  0  0
 35 36  2  0  0  0  0
 36 37  1  0  0  0  0
 37 38  2  0  0  0  0
 38 39  1  0  0  0  0
 39 40  1  0  0  0  0
 39 41  2  0  0  0  0
 29 41  1  0  0  0  0
 35 41  1  0  0  0  0
 38 42  1  0  0  0  0
 37 43  1  0  0  0  0
 36 44  1  0  0  0  0
 28 45  1  0  0  0  0
 25 46  1  0  0  0  0
 25 47  1  0  0  0  0
 13 47  1  0  0  0  0
 47 48  1  0  0  0  0
 47 49  1  0  0  0  0
 19 50  1  0  0  0  0
 18 51  1  0  0  0  0
  9 52  1  0  0  0  0
 52 53  1  0  0  0  0
 52 54  1  0  0  0  0
 52 55  1  0  0  0  0
  2 55  1  0  0  0  0
 55 56  1  0  0  0  0
 55 57  1  0  0  0  0
  1 58  1  0  0  0  0
  1 59  1  0  0  0  0
  1 60  1  0  0  0  0
M  END
> <Potency>
0.115650778381089

> <pIC50>
6.936851439888828

> <Outcome>
Active

> <is_active>
1

$$$$

  Mrv1921 08232120312D          

 51 54  0  0  0  0            999 V2000
    2.2532   -1.0353    0.0000 C   0  0  0  0  0  0  0  0  0  0  0  0
    2.9677   -1.4478    0.0000 N   0  0  0  0  0  0  0  0  0  0  0  0
    3.6822   -1.0353    0.0000 S   0  0  0  0  0  0  0  0  0  0  0  0
    4.0947   -1.7498    0.0000 O   0  0  0  0  0  0  0  0  0  0  0  0
    3.2697   -0.3208    0.0000 O   0  0  0  0  0  0  0  0  0  0  0  0
    4.3966   -0.6228    0.0000 C   0  0  0  0  0  0  0  0  0  0  0  0
    4.3966    0.2022    0.0000 C   0  0  0  0  0  0  0  0  0  0  0  0
    3.6822    0.6147    0.0000 H   0  0  0  0  0  0  0  0  0  0  0  0
    5.1111    0.6147    0.0000 C   0  0  0  0  0  0  0  0  0  0  0  0
    5.1111    1.4397    0.0000 H   0  0  0  0  0  0  0  0  0  0  0  0
    5.8256    0.2022    0.0000 C   0  0  0  0  0  0  0  0  0  0  0  0
    6.5401    0.6147    0.0000 C   0  0  0  0  0  0  0  0  0  0  0  0
    7.2545    0.2022    0.0000 N   0  0  0  0  0  0  0  0  0  0  0  0
    7.2545   -0.6228    0.0000 C   0  0  0  0  0  0  0  0  0  0  0  0
    6.5401   -1.0353    0.0000 C   0  0  0  0  0  0  0  0  0  0  0  0
    6.5401   -1.8603    0.0000 N   0  0  0  0  0  0  0  0  0  0  0  0
    5.8256   -2.2728    0.0000 C   0  0  0  0  0  0  0  0  0  0  0  0
    5.1111   -1.8603    0.0000 O   0  0  0  0  0  0  0  0  0  0  0  0
    5.8256   -3.0978    0.0000 C   0  0  0  0  0  0  0  0  0  0  0  0
    5.0131   -2.9545    0.0000 O   0  0  0  0  0  0  0  0  0  0  0  0
    4.7309   -2.1793    0.0000 C   0  0  0  0  0  0  0  0  0  0  0  0
    4.0807   -2.6871    0.0000 H   0  0  0  0  0  0  0  0  0  0  0  0
    4.6879   -1.3554    0.0000 H   0  0  0  0  0  0  0  0  0  0  0  0
    5.5278   -2.3928    0.0000 H   0  0  0  0  0  0  0  0  0  0  0  0
    6.6380   -2.9545    0.0000 C   0  0  0  0  0  0  0  0  0  0  0  0
    6.2388   -2.2325    0.0000 H   0  0  0  0  0  0  0  0  0  0  0  0
    6.3559   -3.7298    0.0000 H   0  0  0  0  0  0  0  0  0  0  0  0
    7.1683   -3.5865    0.0000 C   0  0  0  0  0  0  0  0  0  0  0  0
    7.9587   -3.8231    0.0000 H   0  0  0  0  0  0  0  0  0  0  0  0
    7.8301   -3.0939    0.0000 H   0  0  0  0  0  0  0  0  0  0  0  0
    6.8862   -4.3618    0.0000 O   0  0  0  0  0  0  0  0  0  0  0  0
    6.0737   -4.5050    0.0000 C   0  0  0  0  0  0  0  0  0  0  0  0
    5.7915   -5.2803    0.0000 C   0  0  0  0  0  0  0  0  0  0  0  0
    4.9791   -5.4235    0.0000 C   0  0  0  0  0  0  0  0  0  0  0  0
    4.4488   -4.7915    0.0000 C   0  0  0  0  0  0  0  0  0  0  0  0
    3.6363   -4.9348    0.0000 Cl  0  0  0  0  0  0  0  0  0  0  0  0
    4.7309   -4.0163    0.0000 C   0  0  0  0  0  0  0  0  0  0  0  0
    4.2007   -3.3843    0.0000 H   0  0  0  0  0  0  0  0  0  0  0  0
    5.5434   -3.8730    0.0000 C   0  0  0  0  0  0  0  0  0  0  0  0
    4.6969   -6.1988    0.0000 H   0  0  0  0  0  0  0  0  0  0  0  0
    6.3218   -5.9123    0.0000 H   0  0  0  0  0  0  0  0  0  0  0  0
    7.2545   -2.2728    0.0000 H   0  0  0  0  0  0  0  0  0  0  0  0
    5.8256   -0.6228    0.0000 C   0  0  0  0  0  0  0  0  0  0  0  0
    5.1111   -1.0353    0.0000 C   0  0  0  0  0  0  0  0  0  0  0  0
    5.8256   -1.4478    0.0000 H   0  0  0  0  0  0  0  0  0  0  0  0
    7.9690   -1.0353    0.0000 H   0  0  0  0  0  0  0  0  0  0  0  0
    6.5401    1.4397    0.0000 H   0  0  0  0  0  0  0  0  0  0  0  0
    2.9677   -2.2728    0.0000 H   0  0  0  0  0  0  0  0  0  0  0  0
    2.6657   -0.3208    0.0000 H   0  0  0  0  0  0  0  0  0  0  0  0
    1.5388   -0.6228    0.0000 H   0  0  0  0  0  0  0  0  0  0  0  0
    1.8407   -1.7498    0.0000 H   0  0  0  0  0  0  0  0  0  0  0  0
  1  2  1  0  0  0  0
  2  3  1  0  0  0  0
  3  4  2  0  0  0  0
  3  5  2  0  0  0  0
  3  6  1  0  0  0  0
  6  7  2  0  0  0  0
  7  8  1  0  0  0  0
  7  9  1  0  0  0  0
  9 10  1  0  0  0  0
  9 11  2  0  0  0  0
 11 12  1  0  0  0  0
 12 13  2  0  0  0  0
 13 14  1  0  0  0  0
 14 15  2  0  0  0  0
 15 16  1  0  0  0  0
 16 17  1  0  0  0  0
 17 18  2  0  0  0  0
 17 19  1  0  0  0  0
 19 20  1  0  0  0  0
 20 21  1  0  0  0  0
 21 22  1  0  0  0  0
 21 23  1  0  0  0  0
 21 24  1  0  0  0  0
 19 25  1  0  0  0  0
 25 26  1  0  0  0  0
 25 27  1  0  0  0  0
 25 28  1  0  0  0  0
 28 29  1  0  0  0  0
 28 30  1  0  0  0  0
 28 31  1  0  0  0  0
 31 32  1  0  0  0  0
 32 33  2  0  0  0  0
 33 34  1  0  0  0  0
 34 35  2  0  0  0  0
 35 36  1  0  0  0  0
 35 37  1  0  0  0  0
 37 38  1  0  0  0  0
 37 39  2  0  0  0  0
 19 39  1  0  0  0  0
 32 39  1  0  0  0  0
 34 40  1  0  0  0  0
 33 41  1  0  0  0  0
 16 42  1  0  0  0  0
 15 43  1  0  0  0  0
 11 43  1  0  0  0  0
 43 44  2  0  0  0  0
  6 44  1  0  0  0  0
 44 45  1  0  0  0  0
 14 46  1  0  0  0  0
 12 47  1  0  0  0  0
  2 48  1  0  0  0  0
  1 49  1  0  0  0  0
  1 50  1  0  0  0  0
  1 51  1  0  0  0  0
M  END
> <Potency>
0.594022286255504

> <pIC50>
6.2261972610521

> <Outcome>
Active

> <is_active>
1

$$$$

  Mrv1921 08232120312D          

 55 59  0  0  0  0            999 V2000
    0.7145   -2.8875    0.0000 O   0  0  0  0  0  0  0  0  0  0  0  0
    1.4289   -2.4750    0.0000 C   0  0  0  0  0  0  0  0  0  0  0  0
    2.1434   -2.8875    0.0000 N   0  0  0  0  0  0  0  0  0  0  0  0
    2.1434   -3.7125    0.0000 C   0  0  0  0  0  0  0  0  0  0  0  0
    2.8579   -4.1250    0.0000 C   0  0  0  0  0  0  0  0  0  0  0  0
    3.5724   -3.7125    0.0000 H   0  0  0  0  0  0  0  0  0  0  0  0
    2.8579   -4.9500    0.0000 N   0  0  0  0  0  0  0  0  0  0  0  0
    2.1434   -5.3625    0.0000 C   0  0  0  0  0  0  0  0  0  0  0  0
    2.1434   -6.1875    0.0000 H   0  0  0  0  0  0  0  0  0  0  0  0
    1.4289   -4.9500    0.0000 C   0  0  0  0  0  0  0  0  0  0  0  0
    0.7145   -5.3625    0.0000 C   0  0  0  0  0  0  0  0  0  0  0  0
    0.0000   -4.9500    0.0000 C   0  0  0  0  0  0  0  0  0  0  0  0
    0.0000   -4.1250    0.0000 C   0  0  0  0  0  0  0  0  0  0  0  0
    0.7145   -3.7125    0.0000 C   0  0  0  0  0  0  0  0  0  0  0  0
    1.4289   -3.3000    0.0000 H   0  0  0  0  0  0  0  0  0  0  0  0
    1.4289   -4.1250    0.0000 C   0  0  0  0  0  0  0  0  0  0  0  0
   -0.7145   -3.7125    0.0000 H   0  0  0  0  0  0  0  0  0  0  0  0
   -0.7145   -5.3625    0.0000 H   0  0  0  0  0  0  0  0  0  0  0  0
    0.7145   -6.1875    0.0000 H   0  0  0  0  0  0  0  0  0  0  0  0
    2.8579   -2.4750    0.0000 H   0  0  0  0  0  0  0  0  0  0  0  0
    1.4289   -1.6500    0.0000 C   0  0  0  0  0  0  0  0  0  0  0  0
    0.7145   -1.2375    0.0000 C   0  0  0  0  0  0  0  0  0  0  0  0
   -0.1091   -1.2855    0.0000 H   0  0  0  0  0  0  0  0  0  0  0  0
    0.2611   -1.9268    0.0000 H   0  0  0  0  0  0  0  0  0  0  0  0
    0.7145   -0.4125    0.0000 N   0  0  0  0  0  0  0  0  0  0  0  0
    0.0000    0.0000    0.0000 S   0  0  0  0  0  0  0  0  0  0  0  0
    0.4125    0.7145    0.0000 O   0  0  0  0  0  0  0  0  0  0  0  0
   -0.4125   -0.7145    0.0000 O   0  0  0  0  0  0  0  0  0  0  0  0
   -0.7145    0.4125    0.0000 C   0  0  0  0  0  0  0  0  0  0  0  0
   -0.7145    1.2375    0.0000 C   0  0  0  0  0  0  0  0  0  0  0  0
   -1.2978    1.8209    0.0000 C   0  0  0  0  0  0  0  0  0  0  0  0
   -2.0123    2.2334    0.0000 H   0  0  0  0  0  0  0  0  0  0  0  0
   -2.0123    1.4084    0.0000 H   0  0  0  0  0  0  0  0  0  0  0  0
   -0.7145    2.4042    0.0000 N   0  0  0  0  0  0  0  0  0  0  0  0
   -0.7145    3.2292    0.0000 H   0  0  0  0  0  0  0  0  0  0  0  0
   -0.1311    1.8209    0.0000 C   0  0  0  0  0  0  0  0  0  0  0  0
    0.6915    1.8838    0.0000 H   0  0  0  0  0  0  0  0  0  0  0  0
    0.3782    2.4699    0.0000 H   0  0  0  0  0  0  0  0  0  0  0  0
    0.0477    0.9218    0.0000 H   0  0  0  0  0  0  0  0  0  0  0  0
   -1.5381    0.3645    0.0000 H   0  0  0  0  0  0  0  0  0  0  0  0
   -1.1678   -0.2768    0.0000 H   0  0  0  0  0  0  0  0  0  0  0  0
    1.4289    0.0000    0.0000 C   0  0  0  0  0  0  0  0  0  0  0  0
    1.7992    0.7372    0.0000 H   0  0  0  0  0  0  0  0  0  0  0  0
    1.0587    0.7372    0.0000 H   0  0  0  0  0  0  0  0  0  0  0  0
    2.1434   -0.4125    0.0000 C   0  0  0  0  0  0  0  0  0  0  0  0
    2.8579    0.0000    0.0000 C   0  0  0  0  0  0  0  0  0  0  0  0
    3.5724   -0.4125    0.0000 C   0  0  0  0  0  0  0  0  0  0  0  0
    3.5724   -1.2375    0.0000 C   0  0  0  0  0  0  0  0  0  0  0  0
    4.2868   -1.6500    0.0000 Cl  0  0  0  0  0  0  0  0  0  0  0  0
    2.8579   -1.6500    0.0000 C   0  0  0  0  0  0  0  0  0  0  0  0
    2.8579   -0.8250    0.0000 H   0  0  0  0  0  0  0  0  0  0  0  0
    2.1434   -1.2375    0.0000 C   0  0  0  0  0  0  0  0  0  0  0  0
    4.2868   -0.0000    0.0000 H   0  0  0  0  0  0  0  0  0  0  0  0
    2.8579    0.8250    0.0000 H   0  0  0  0  0  0  0  0  0  0  0  0
    2.1434   -2.0625    0.0000 H   0  0  0  0  0  0  0  0  0  0  0  0
  1  2  2  0  0  0  0
  2  3  1  0  0  0  0
  3  4  1  0  0  0  0
  4  5  2  0  0  0  0
  5  6  1  0  0  0  0
  5  7  1  0  0  0  0
  7  8  2  0  0  0  0
  8  9  1  0  0  0  0
  8 10  1  0  0  0  0
 10 11  2  0  0  0  0
 11 12  1  0  0  0  0
 12 13  2  0  0  0  0
 13 14  1  0  0  0  0
 14 15  1  0  0  0  0
 14 16  2  0  0  0  0
  4 16  1  0  0  0  0
 10 16  1  0  0  0  0
 13 17  1  0  0  0  0
 12 18  1  0  0  0  0
 11 19  1  0  0  0  0
  3 20  1  0  0  0  0
  2 21  1  0  0  0  0
 21 22  1  0  0  0  0
 22 23  1  0  0  0  0
 22 24  1  0  0  0  0
 22 25  1  0  0  0  0
 25 26  1  0  0  0  0
 26 27  2  0  0  0  0
 26 28  2  0  0  0  0
 26 29  1  0  0  0  0
 29 30  1  0  0  0  0
 30 31  1  0  0  0  0
 31 32  1  0  0  0  0
 31 33  1  0  0  0  0
 31 34  1  0  0  0  0
 34 35  1  0  0  0  0
 34 36  1  0  0  0  0
 30 36  1  0  0  0  0
 36 37  1  0  0  0  0
 36 38  1  0  0  0  0
 30 39  1  0  0  0  0
 29 40  1  0  0  0  0
 29 41  1  0  0  0  0
 25 42  1  0  0  0  0
 42 43  1  0  0  0  0
 42 44  1  0  0  0  0
 42 45  1  0  0  0  0
 45 46  2  0  0  0  0
 46 47  1  0  0  0  0
 47 48  2  0  0  0  0
 48 49  1  0  0  0  0
 48 50  1  0  0  0  0
 50 51  1  0  0  0  0
 50 52  2  0  0  0  0
 21 52  1  0  0  0  0
 45 52  1  0  0  0  0
 47 53  1  0  0  0  0
 46 54  1  0  0  0  0
 21 55  1  0  0  0  0
M  END
> <Potency>
0.135169220498344

> <pIC50>
6.869122190713591

> <Outcome>
Active

> <is_active>
1

$$$$

  Mrv1921 08232120312D          

 51 55  0  0  0  0            999 V2000
    3.5955   -6.4175    0.0000 C   0  0  0  0  0  0  0  0  0  0  0  0
    2.8109   -6.6724    0.0000 C   0  0  0  0  0  0  0  0  0  0  0  0
    2.5559   -7.4570    0.0000 N   0  0  0  0  0  0  0  0  0  0  0  0
    1.7309   -7.4570    0.0000 O   0  0  0  0  0  0  0  0  0  0  0  0
    1.4760   -6.6724    0.0000 C   0  0  0  0  0  0  0  0  0  0  0  0
    0.6914   -6.4175    0.0000 H   0  0  0  0  0  0  0  0  0  0  0  0
    2.1434   -6.1875    0.0000 C   0  0  0  0  0  0  0  0  0  0  0  0
    2.1434   -5.3625    0.0000 C   0  0  0  0  0  0  0  0  0  0  0  0
    2.8579   -4.9500    0.0000 O   0  0  0  0  0  0  0  0  0  0  0  0
    1.4289   -4.9500    0.0000 N   0  0  0  0  0  0  0  0  0  0  0  0
    0.7145   -5.3625    0.0000 C   0  0  0  0  0  0  0  0  0  0  0  0
    0.3442   -6.0997    0.0000 H   0  0  0  0  0  0  0  0  0  0  0  0
    1.0847   -6.0997    0.0000 H   0  0  0  0  0  0  0  0  0  0  0  0
    0.0000   -4.9500    0.0000 C   0  0  0  0  0  0  0  0  0  0  0  0
   -0.7145   -5.3625    0.0000 C   0  0  0  0  0  0  0  0  0  0  0  0
   -1.4289   -4.9500    0.0000 C   0  0  0  0  0  0  0  0  0  0  0  0
   -1.4289   -4.1250    0.0000 C   0  0  0  0  0  0  0  0  0  0  0  0
   -2.1434   -3.7125    0.0000 Cl  0  0  0  0  0  0  0  0  0  0  0  0
   -0.7145   -3.7125    0.0000 C   0  0  0  0  0  0  0  0  0  0  0  0
   -0.7145   -2.8875    0.0000 H   0  0  0  0  0  0  0  0  0  0  0  0
    0.0000   -4.1250    0.0000 C   0  0  0  0  0  0  0  0  0  0  0  0
    0.7145   -3.7125    0.0000 C   0  0  0  0  0  0  0  0  0  0  0  0
    0.7145   -2.8875    0.0000 C   0  0  0  0  0  0  0  0  0  0  0  0
    0.0000   -2.4750    0.0000 O   0  0  0  0  0  0  0  0  0  0  0  0
    1.4289   -2.4750    0.0000 N   0  0  0  0  0  0  0  0  0  0  0  0
    1.4289   -1.6500    0.0000 C   0  0  0  0  0  0  0  0  0  0  0  0
    0.7145   -1.2375    0.0000 C   0  0  0  0  0  0  0  0  0  0  0  0
    0.0000   -1.6500    0.0000 H   0  0  0  0  0  0  0  0  0  0  0  0
    0.7145   -0.4125    0.0000 N   0  0  0  0  0  0  0  0  0  0  0  0
    1.4289    0.0000    0.0000 C   0  0  0  0  0  0  0  0  0  0  0  0
    1.4289    0.8250    0.0000 H   0  0  0  0  0  0  0  0  0  0  0  0
    2.1434   -0.4125    0.0000 C   0  0  0  0  0  0  0  0  0  0  0  0
    2.8579    0.0000    0.0000 C   0  0  0  0  0  0  0  0  0  0  0  0
    3.5724   -0.4125    0.0000 C   0  0  0  0  0  0  0  0  0  0  0  0
    3.5724   -1.2375    0.0000 C   0  0  0  0  0  0  0  0  0  0  0  0
    2.8579   -1.6500    0.0000 C   0  0  0  0  0  0  0  0  0  0  0  0
    2.8579   -2.4750    0.0000 H   0  0  0  0  0  0  0  0  0  0  0  0
    2.1434   -1.2375    0.0000 C   0  0  0  0  0  0  0  0  0  0  0  0
    4.2868   -1.6500    0.0000 H   0  0  0  0  0  0  0  0  0  0  0  0
    4.2868   -0.0000    0.0000 H   0  0  0  0  0  0  0  0  0  0  0  0
    2.8579    0.8250    0.0000 H   0  0  0  0  0  0  0  0  0  0  0  0
    2.2539   -2.4750    0.0000 H   0  0  0  0  0  0  0  0  0  0  0  0
    1.4289   -3.3000    0.0000 H   0  0  0  0  0  0  0  0  0  0  0  0
    1.4289   -4.1250    0.0000 C   0  0  0  0  0  0  0  0  0  0  0  0
    2.2042   -4.4072    0.0000 H   0  0  0  0  0  0  0  0  0  0  0  0
    2.2042   -3.8428    0.0000 H   0  0  0  0  0  0  0  0  0  0  0  0
   -2.1434   -5.3625    0.0000 H   0  0  0  0  0  0  0  0  0  0  0  0
   -0.7145   -6.1875    0.0000 H   0  0  0  0  0  0  0  0  0  0  0  0
    3.8504   -7.2021    0.0000 H   0  0  0  0  0  0  0  0  0  0  0  0
    4.3801   -6.1625    0.0000 H   0  0  0  0  0  0  0  0  0  0  0  0
    3.3405   -5.6329    0.0000 H   0  0  0  0  0  0  0  0  0  0  0  0
  1  2  1  0  0  0  0
  2  3  2  0  0  0  0
  3  4  1  0  0  0  0
  4  5  1  0  0  0  0
  5  6  1  0  0  0  0
  5  7  2  0  0  0  0
  2  7  1  0  0  0  0
  7  8  1  0  0  0  0
  8  9  2  0  0  0  0
  8 10  1  0  0  0  0
 10 11  1  0  0  0  0
 11 12  1  0  0  0  0
 11 13  1  0  0  0  0
 11 14  1  0  0  0  0
 14 15  2  0  0  0  0
 15 16  1  0  0  0  0
 16 17  2  0  0  0  0
 17 18  1  0  0  0  0
 17 19  1  0  0  0  0
 19 20  1  0  0  0  0
 19 21  2  0  0  0  0
 14 21  1  0  0  0  0
 21 22  1  0  0  0  0
 22 23  1  0  0  0  0
 23 24  2  0  0  0  0
 23 25  1  0  0  0  0
 25 26  1  0  0  0  0
 26 27  2  0  0  0  0
 27 28  1  0  0  0  0
 27 29  1  0  0  0  0
 29 30  2  0  0  0  0
 30 31  1  0  0  0  0
 30 32  1  0  0  0  0
 32 33  2  0  0  0  0
 33 34  1  0  0  0  0
 34 35  2  0  0  0  0
 35 36  1  0  0  0  0
 36 37  1  0  0  0  0
 36 38  2  0  0  0  0
 26 38  1  0  0  0  0
 32 38  1  0  0  0  0
 35 39  1  0  0  0  0
 34 40  1  0  0  0  0
 33 41  1  0  0  0  0
 25 42  1  0  0  0  0
 22 43  1  0  0  0  0
 22 44  1  0  0  0  0
 10 44  1  0  0  0  0
 44 45  1  0  0  0  0
 44 46  1  0  0  0  0
 16 47  1  0  0  0  0
 15 48  1  0  0  0  0
  1 49  1  0  0  0  0
  1 50  1  0  0  0  0
  1 51  1  0  0  0  0
M  END
> <Potency>
0.167685166842976

> <pIC50>
6.775505352678105

> <Outcome>
Active

> <is_active>
1

$$$$

  Mrv1921 08232120312D          

 79 78  0  0  0  0            999 V2000
    2.1272    2.8344    0.0000 C   0  0  0  0  0  0  0  0  0  0  0  0
    2.3254    2.0336    0.0000 C   0  0  0  0  0  0  0  0  0  0  0  0
    2.5235    1.2327    0.0000 C   0  0  0  0  0  0  0  0  0  0  0  0
    3.3162    1.0039    0.0000 C   0  0  0  0  0  0  0  0  0  0  0  0
    3.5143    0.2031    0.0000 C   0  0  0  0  0  0  0  0  0  0  0  0
    4.3070   -0.0257    0.0000 C   0  0  0  0  0  0  0  0  0  0  0  0
    4.9015    0.5463    0.0000 O   0  0  0  0  0  0  0  0  0  0  0  0
    4.5051   -0.8266    0.0000 N   0  0  0  0  0  0  0  0  0  0  0  0
    5.2978   -1.0554    0.0000 C   0  0  0  0  0  0  0  0  0  0  0  0
    5.4959   -1.8563    0.0000 C   0  0  0  0  0  0  0  0  0  0  0  0
    6.2886   -2.0851    0.0000 O   0  0  0  0  0  0  0  0  0  0  0  0
    4.9015   -2.4283    0.0000 N   0  0  0  0  0  0  0  0  0  0  0  0
    5.0996   -3.2291    0.0000 C   0  0  0  0  0  0  0  0  0  0  0  0
    4.5051   -3.8012    0.0000 C   0  0  0  0  0  0  0  0  0  0  0  0
    3.7125   -3.5724    0.0000 C   0  0  0  0  0  0  0  0  0  0  0  0
    3.1180   -4.1444    0.0000 C   0  0  0  0  0  0  0  0  0  0  0  0
    2.7193   -3.4221    0.0000 H   0  0  0  0  0  0  0  0  0  0  0  0
    2.3172   -4.3425    0.0000 H   0  0  0  0  0  0  0  0  0  0  0  0
    3.1022   -4.9692    0.0000 H   0  0  0  0  0  0  0  0  0  0  0  0
    3.5143   -2.7715    0.0000 C   0  0  0  0  0  0  0  0  0  0  0  0
    3.6377   -1.9558    0.0000 H   0  0  0  0  0  0  0  0  0  0  0  0
    2.8079   -2.3453    0.0000 H   0  0  0  0  0  0  0  0  0  0  0  0
    2.8503   -3.2611    0.0000 H   0  0  0  0  0  0  0  0  0  0  0  0
    3.9107   -4.3732    0.0000 H   0  0  0  0  0  0  0  0  0  0  0  0
    4.3228   -4.6058    0.0000 H   0  0  0  0  0  0  0  0  0  0  0  0
    5.0416   -4.4279    0.0000 H   0  0  0  0  0  0  0  0  0  0  0  0
    5.8922   -3.4579    0.0000 C   0  0  0  0  0  0  0  0  0  0  0  0
    6.4867   -2.8859    0.0000 O   0  0  0  0  0  0  0  0  0  0  0  0
    6.0904   -4.2588    0.0000 N   0  0  0  0  0  0  0  0  0  0  0  0
    6.8830   -4.4876    0.0000 N   0  0  0  0  0  0  0  0  0  0  0  0
    7.4775   -3.9156    0.0000 C   0  0  0  0  0  0  0  0  0  0  0  0
    8.2701   -4.1444    0.0000 C   0  0  0  0  0  0  0  0  0  0  0  0
    8.8646   -3.5724    0.0000 C   0  0  0  0  0  0  0  0  0  0  0  0
    8.6665   -2.7715    0.0000 N   0  0  0  0  0  0  0  0  0  0  0  0
    9.2609   -2.1995    0.0000 H   0  0  0  0  0  0  0  0  0  0  0  0
    7.8738   -2.5427    0.0000 H   0  0  0  0  0  0  0  0  0  0  0  0
    9.6573   -3.8012    0.0000 O   0  0  0  0  0  0  0  0  0  0  0  0
    7.6757   -4.7164    0.0000 H   0  0  0  0  0  0  0  0  0  0  0  0
    9.0628   -4.3732    0.0000 H   0  0  0  0  0  0  0  0  0  0  0  0
    7.6599   -3.1110    0.0000 H   0  0  0  0  0  0  0  0  0  0  0  0
    6.9410   -3.2888    0.0000 H   0  0  0  0  0  0  0  0  0  0  0  0
    7.0812   -5.2885    0.0000 C   0  0  0  0  0  0  0  0  0  0  0  0
    6.4867   -5.8605    0.0000 O   0  0  0  0  0  0  0  0  0  0  0  0
    7.8738   -5.5173    0.0000 C   0  0  0  0  0  0  0  0  0  0  0  0
    8.4683   -4.9452    0.0000 C   0  0  0  0  0  0  0  0  0  0  0  0
    9.2609   -5.1741    0.0000 C   0  0  0  0  0  0  0  0  0  0  0  0
    9.8554   -4.6020    0.0000 O   0  0  0  0  0  0  0  0  0  0  0  0
    9.4591   -5.9749    0.0000 O   0  0  0  0  0  0  0  0  0  0  0  0
   10.2517   -6.2037    0.0000 C   0  0  0  0  0  0  0  0  0  0  0  0
   10.0229   -6.9963    0.0000 H   0  0  0  0  0  0  0  0  0  0  0  0
   11.0444   -6.4325    0.0000 H   0  0  0  0  0  0  0  0  0  0  0  0
   10.4805   -5.4111    0.0000 H   0  0  0  0  0  0  0  0  0  0  0  0
    9.2692   -4.7471    0.0000 H   0  0  0  0  0  0  0  0  0  0  0  0
    8.0720   -6.3181    0.0000 H   0  0  0  0  0  0  0  0  0  0  0  0
    5.4959   -4.8308    0.0000 H   0  0  0  0  0  0  0  0  0  0  0  0
    4.3070   -3.0003    0.0000 H   0  0  0  0  0  0  0  0  0  0  0  0
    4.1006   -2.6264    0.0000 H   0  0  0  0  0  0  0  0  0  0  0  0
    5.8922   -0.4834    0.0000 C   0  0  0  0  0  0  0  0  0  0  0  0
    6.4643   -1.0778    0.0000 C   0  0  0  0  0  0  0  0  0  0  0  0
    5.8698   -1.6499    0.0000 H   0  0  0  0  0  0  0  0  0  0  0  0
    7.0363   -1.6723    0.0000 H   0  0  0  0  0  0  0  0  0  0  0  0
    7.0588   -0.5058    0.0000 H   0  0  0  0  0  0  0  0  0  0  0  0
    5.3202    0.1111    0.0000 C   0  0  0  0  0  0  0  0  0  0  0  0
    4.5659   -0.2231    0.0000 H   0  0  0  0  0  0  0  0  0  0  0  0
    4.9572   -0.6298    0.0000 H   0  0  0  0  0  0  0  0  0  0  0  0
    5.9147    0.6831    0.0000 H   0  0  0  0  0  0  0  0  0  0  0  0
    6.4867    0.0887    0.0000 C   0  0  0  0  0  0  0  0  0  0  0  0
    7.3116    0.0728    0.0000 H   0  0  0  0  0  0  0  0  0  0  0  0
    7.0812    0.6607    0.0000 H   0  0  0  0  0  0  0  0  0  0  0  0
    6.5026    0.9135    0.0000 H   0  0  0  0  0  0  0  0  0  0  0  0
    4.7033   -1.6274    0.0000 H   0  0  0  0  0  0  0  0  0  0  0  0
    3.9107   -1.3986    0.0000 H   0  0  0  0  0  0  0  0  0  0  0  0
    2.7264   -0.0413    0.0000 H   0  0  0  0  0  0  0  0  0  0  0  0
    3.2398   -0.5749    0.0000 H   0  0  0  0  0  0  0  0  0  0  0  0
    4.1042    1.2483    0.0000 H   0  0  0  0  0  0  0  0  0  0  0  0
    3.5907    1.7819    0.0000 H   0  0  0  0  0  0  0  0  0  0  0  0
    1.7356    0.9883    0.0000 H   0  0  0  0  0  0  0  0  0  0  0  0
    2.2490    0.4547    0.0000 H   0  0  0  0  0  0  0  0  0  0  0  0
    1.9291    3.6353    0.0000 H   0  0  0  0  0  0  0  0  0  0  0  0
  1  2  3  0  0  0  0
  2  3  1  0  0  0  0
  3  4  1  0  0  0  0
  4  5  1  0  0  0  0
  5  6  1  0  0  0  0
  6  7  2  0  0  0  0
  6  8  1  0  0  0  0
  8  9  1  0  0  0  0
  9 10  1  0  0  0  0
 10 11  2  0  0  0  0
 10 12  1  0  0  0  0
 12 13  1  0  0  0  0
 13 14  1  0  0  0  0
 14 15  1  0  0  0  0
 15 16  1  0  0  0  0
 16 17  1  0  0  0  0
 16 18  1  0  0  0  0
 16 19  1  0  0  0  0
 15 20  1  0  0  0  0
 20 21  1  0  0  0  0
 20 22  1  0  0  0  0
 20 23  1  0  0  0  0
 15 24  1  0  0  0  0
 14 25  1  0  0  0  0
 14 26  1  0  0  0  0
 13 27  1  0  0  0  0
 27 28  2  0  0  0  0
 27 29  1  0  0  0  0
 29 30  1  0  0  0  0
 30 31  1  0  0  0  0
 31 32  1  0  0  0  0
 32 33  1  0  0  0  0
 33 34  1  0  0  0  0
 34 35  1  0  0  0  0
 34 36  1  0  0  0  0
 33 37  2  0  0  0  0
 32 38  1  0  0  0  0
 32 39  1  0  0  0  0
 31 40  1  0  0  0  0
 31 41  1  0  0  0  0
 30 42  1  0  0  0  0
 42 43  2  0  0  0  0
 42 44  1  0  0  0  0
 44 45  2  0  0  0  0
 45 46  1  0  0  0  0
 46 47  2  0  0  0  0
 46 48  1  0  0  0  0
 48 49  1  0  0  0  0
 49 50  1  0  0  0  0
 49 51  1  0  0  0  0
 49 52  1  0  0  0  0
 45 53  1  0  0  0  0
 44 54  1  4  0  0  0
 29 55  1  0  0  0  0
 13 56  1  0  0  0  0
 12 57  1  0  0  0  0
  9 58  1  0  0  0  0
 58 59  1  0  0  0  0
 59 60  1  0  0  0  0
 59 61  1  0  0  0  0
 59 62  1  0  0  0  0
 58 63  1  0  0  0  0
 63 64  1  0  0  0  0
 63 65  1  0  0  0  0
 63 66  1  0  0  0  0
 58 67  1  0  0  0  0
 67 68  1  0  0  0  0
 67 69  1  0  0  0  0
 67 70  1  0  0  0  0
  9 71  1  0  0  0  0
  8 72  1  0  0  0  0
  5 73  1  0  0  0  0
  5 74  1  0  0  0  0
  4 75  1  0  0  0  0
  4 76  1  0  0  0  0
  3 77  1  0  0  0  0
  3 78  1  0  0  0  0
  1 79  1  0  0  0  0
M  END
> <Potency>
0.0440039753329501

> <pIC50>
7.356508087441609

> <Outcome>
Active

> <is_active>
1

$$$$

  Mrv1921 08232120312D          

 48 51  0  0  0  0            999 V2000
   -2.8579   -9.0750    0.0000 C   0  0  0  0  0  0  0  0  0  0  0  0
   -2.1434   -8.6625    0.0000 O   0  0  0  0  0  0  0  0  0  0  0  0
   -2.1434   -7.8375    0.0000 C   0  0  0  0  0  0  0  0  0  0  0  0
   -2.8579   -7.4250    0.0000 C   0  0  0  0  0  0  0  0  0  0  0  0
   -3.5724   -7.8375    0.0000 H   0  0  0  0  0  0  0  0  0  0  0  0
   -2.8579   -6.6000    0.0000 C   0  0  0  0  0  0  0  0  0  0  0  0
   -3.5724   -6.1875    0.0000 Cl  0  0  0  0  0  0  0  0  0  0  0  0
   -2.1434   -6.1875    0.0000 N   0  0  0  0  0  0  0  0  0  0  0  0
   -1.4289   -6.6000    0.0000 C   0  0  0  0  0  0  0  0  0  0  0  0
   -0.7145   -6.1875    0.0000 N   0  0  0  0  0  0  0  0  0  0  0  0
   -0.7145   -5.3625    0.0000 C   0  0  0  0  0  0  0  0  0  0  0  0
   -1.4289   -4.9500    0.0000 C   0  0  0  0  0  0  0  0  0  0  0  0
   -2.1434   -5.3625    0.0000 H   0  0  0  0  0  0  0  0  0  0  0  0
   -1.4289   -4.1250    0.0000 C   0  0  0  0  0  0  0  0  0  0  0  0
   -2.1434   -3.7125    0.0000 Cl  0  0  0  0  0  0  0  0  0  0  0  0
   -0.7145   -3.7125    0.0000 C   0  0  0  0  0  0  0  0  0  0  0  0
   -0.7145   -2.8875    0.0000 H   0  0  0  0  0  0  0  0  0  0  0  0
    0.0000   -4.1250    0.0000 C   0  0  0  0  0  0  0  0  0  0  0  0
    0.7145   -3.7125    0.0000 C   0  0  0  0  0  0  0  0  0  0  0  0
    0.7145   -2.8875    0.0000 C   0  0  0  0  0  0  0  0  0  0  0  0
    0.0000   -2.4750    0.0000 O   0  0  0  0  0  0  0  0  0  0  0  0
    1.4289   -2.4750    0.0000 N   0  0  0  0  0  0  0  0  0  0  0  0
    1.4289   -1.6500    0.0000 C   0  0  0  0  0  0  0  0  0  0  0  0
    0.7145   -1.2375    0.0000 C   0  0  0  0  0  0  0  0  0  0  0  0
    0.0000   -1.6500    0.0000 H   0  0  0  0  0  0  0  0  0  0  0  0
    0.7145   -0.4125    0.0000 N   0  0  0  0  0  0  0  0  0  0  0  0
    1.4289    0.0000    0.0000 C   0  0  0  0  0  0  0  0  0  0  0  0
    1.4289    0.8250    0.0000 H   0  0  0  0  0  0  0  0  0  0  0  0
    2.1434   -0.4125    0.0000 C   0  0  0  0  0  0  0  0  0  0  0  0
    2.8579    0.0000    0.0000 C   0  0  0  0  0  0  0  0  0  0  0  0
    3.5724   -0.4125    0.0000 C   0  0  0  0  0  0  0  0  0  0  0  0
    3.5724   -1.2375    0.0000 C   0  0  0  0  0  0  0  0  0  0  0  0
    2.8579   -1.6500    0.0000 C   0  0  0  0  0  0  0  0  0  0  0  0
    2.8579   -2.4750    0.0000 H   0  0  0  0  0  0  0  0  0  0  0  0
    2.1434   -1.2375    0.0000 C   0  0  0  0  0  0  0  0  0  0  0  0
    4.2868   -1.6500    0.0000 H   0  0  0  0  0  0  0  0  0  0  0  0
    4.2868   -0.0000    0.0000 H   0  0  0  0  0  0  0  0  0  0  0  0
    2.8579    0.8250    0.0000 H   0  0  0  0  0  0  0  0  0  0  0  0
    2.1434   -2.8875    0.0000 H   0  0  0  0  0  0  0  0  0  0  0  0
    1.1678   -4.4018    0.0000 H   0  0  0  0  0  0  0  0  0  0  0  0
    1.5381   -3.7605    0.0000 H   0  0  0  0  0  0  0  0  0  0  0  0
    0.0000   -4.9500    0.0000 C   0  0  0  0  0  0  0  0  0  0  0  0
    0.7145   -5.3625    0.0000 H   0  0  0  0  0  0  0  0  0  0  0  0
    0.0000   -6.6000    0.0000 H   0  0  0  0  0  0  0  0  0  0  0  0
   -1.4289   -7.4250    0.0000 N   0  0  0  0  0  0  0  0  0  0  0  0
   -3.2704   -8.3605    0.0000 H   0  0  0  0  0  0  0  0  0  0  0  0
   -3.5724   -9.4875    0.0000 H   0  0  0  0  0  0  0  0  0  0  0  0
   -2.4454   -9.7895    0.0000 H   0  0  0  0  0  0  0  0  0  0  0  0
  1  2  1  0  0  0  0
  2  3  1  0  0  0  0
  3  4  2  0  0  0  0
  4  5  1  0  0  0  0
  4  6  1  0  0  0  0
  6  7  1  0  0  0  0
  6  8  2  0  0  0  0
  8  9  1  0  0  0  0
  9 10  1  0  0  0  0
 10 11  1  0  0  0  0
 11 12  2  0  0  0  0
 12 13  1  0  0  0  0
 12 14  1  0  0  0  0
 14 15  1  0  0  0  0
 14 16  2  0  0  0  0
 16 17  1  0  0  0  0
 16 18  1  0  0  0  0
 18 19  1  0  0  0  0
 19 20  1  0  0  0  0
 20 21  2  0  0  0  0
 20 22  1  0  0  0  0
 22 23  1  0  0  0  0
 23 24  2  0  0  0  0
 24 25  1  0  0  0  0
 24 26  1  0  0  0  0
 26 27  2  0  0  0  0
 27 28  1  0  0  0  0
 27 29  1  0  0  0  0
 29 30  2  0  0  0  0
 30 31  1  0  0  0  0
 31 32  2  0  0  0  0
 32 33  1  0  0  0  0
 33 34  1  0  0  0  0
 33 35  2  0  0  0  0
 23 35  1  0  0  0  0
 29 35  1  0  0  0  0
 32 36  1  0  0  0  0
 31 37  1  0  0  0  0
 30 38  1  0  0  0  0
 22 39  1  0  0  0  0
 19 40  1  0  0  0  0
 19 41  1  0  0  0  0
 18 42  2  0  0  0  0
 11 42  1  0  0  0  0
 42 43  1  0  0  0  0
 10 44  1  0  0  0  0
  9 45  2  0  0  0  0
  3 45  1  0  0  0  0
  1 46  1  0  0  0  0
  1 47  1  0  0  0  0
  1 48  1  0  0  0  0
M  END
> <Potency>
0.504125229392672

> <pIC50>
6.2974615673667715

> <Outcome>
Active

> <is_active>
1

$$$$

  Mrv1921 08232120312D          

 57 61  0  0  0  0            999 V2000
    0.0000   -2.4750    0.0000 O   0  0  0  0  0  0  0  0  0  0  0  0
    0.7145   -2.8875    0.0000 C   0  0  0  0  0  0  0  0  0  0  0  0
    0.7145   -3.7125    0.0000 C   0  0  0  0  0  0  0  0  0  0  0  0
    0.0000   -4.1250    0.0000 C   0  0  0  0  0  0  0  0  0  0  0  0
    0.0000   -4.9500    0.0000 C   0  0  0  0  0  0  0  0  0  0  0  0
    0.7145   -5.3625    0.0000 H   0  0  0  0  0  0  0  0  0  0  0  0
   -0.7145   -5.3625    0.0000 C   0  0  0  0  0  0  0  0  0  0  0  0
   -0.7145   -6.1875    0.0000 Cl  0  0  0  0  0  0  0  0  0  0  0  0
   -1.4289   -4.9500    0.0000 C   0  0  0  0  0  0  0  0  0  0  0  0
   -2.1434   -5.3625    0.0000 H   0  0  0  0  0  0  0  0  0  0  0  0
   -1.4289   -4.1250    0.0000 C   0  0  0  0  0  0  0  0  0  0  0  0
   -2.1434   -3.7125    0.0000 N   0  0  0  0  0  0  0  0  0  0  0  0
   -2.8579   -4.1250    0.0000 C   0  0  0  0  0  0  0  0  0  0  0  0
   -3.2281   -4.8622    0.0000 H   0  0  0  0  0  0  0  0  0  0  0  0
   -2.4876   -4.8622    0.0000 H   0  0  0  0  0  0  0  0  0  0  0  0
   -3.5724   -3.7125    0.0000 C   0  0  0  0  0  0  0  0  0  0  0  0
   -4.3960   -3.7605    0.0000 H   0  0  0  0  0  0  0  0  0  0  0  0
   -4.0257   -4.4018    0.0000 H   0  0  0  0  0  0  0  0  0  0  0  0
   -3.5724   -2.8875    0.0000 N   0  0  0  0  0  0  0  0  0  0  0  0
   -4.2868   -2.4750    0.0000 C   0  0  0  0  0  0  0  0  0  0  0  0
   -5.0013   -2.8875    0.0000 O   0  0  0  0  0  0  0  0  0  0  0  0
   -4.2868   -1.6500    0.0000 C   0  0  0  0  0  0  0  0  0  0  0  0
   -4.9543   -1.1651    0.0000 C   0  0  0  0  0  0  0  0  0  0  0  0
   -5.7389   -1.4200    0.0000 H   0  0  0  0  0  0  0  0  0  0  0  0
   -4.6993   -0.3805    0.0000 C   0  0  0  0  0  0  0  0  0  0  0  0
   -5.1842    0.2870    0.0000 H   0  0  0  0  0  0  0  0  0  0  0  0
   -3.8743   -0.3805    0.0000 C   0  0  0  0  0  0  0  0  0  0  0  0
   -3.3894    0.2870    0.0000 H   0  0  0  0  0  0  0  0  0  0  0  0
   -3.6194   -1.1651    0.0000 O   0  0  0  0  0  0  0  0  0  0  0  0
   -2.8579   -2.4750    0.0000 C   0  0  0  0  0  0  0  0  0  0  0  0
   -2.4876   -1.7378    0.0000 H   0  0  0  0  0  0  0  0  0  0  0  0
   -3.2281   -1.7378    0.0000 H   0  0  0  0  0  0  0  0  0  0  0  0
   -2.1434   -2.8875    0.0000 C   0  0  0  0  0  0  0  0  0  0  0  0
   -1.3198   -2.8395    0.0000 H   0  0  0  0  0  0  0  0  0  0  0  0
   -1.6901   -2.1982    0.0000 H   0  0  0  0  0  0  0  0  0  0  0  0
   -0.7145   -3.7125    0.0000 C   0  0  0  0  0  0  0  0  0  0  0  0
   -0.7145   -2.8875    0.0000 H   0  0  0  0  0  0  0  0  0  0  0  0
    1.1678   -4.4018    0.0000 H   0  0  0  0  0  0  0  0  0  0  0  0
    1.5381   -3.7605    0.0000 H   0  0  0  0  0  0  0  0  0  0  0  0
    1.4289   -2.4750    0.0000 N   0  0  0  0  0  0  0  0  0  0  0  0
    1.4289   -1.6500    0.0000 C   0  0  0  0  0  0  0  0  0  0  0  0
    0.7145   -1.2375    0.0000 C   0  0  0  0  0  0  0  0  0  0  0  0
    0.0000   -1.6500    0.0000 H   0  0  0  0  0  0  0  0  0  0  0  0
    0.7145   -0.4125    0.0000 N   0  0  0  0  0  0  0  0  0  0  0  0
    1.4289    0.0000    0.0000 C   0  0  0  0  0  0  0  0  0  0  0  0
    1.4289    0.8250    0.0000 H   0  0  0  0  0  0  0  0  0  0  0  0
    2.1434   -0.4125    0.0000 C   0  0  0  0  0  0  0  0  0  0  0  0
    2.8579    0.0000    0.0000 C   0  0  0  0  0  0  0  0  0  0  0  0
    3.5724   -0.4125    0.0000 C   0  0  0  0  0  0  0  0  0  0  0  0
    3.5724   -1.2375    0.0000 C   0  0  0  0  0  0  0  0  0  0  0  0
    2.8579   -1.6500    0.0000 C   0  0  0  0  0  0  0  0  0  0  0  0
    2.8579   -2.4750    0.0000 H   0  0  0  0  0  0  0  0  0  0  0  0
    2.1434   -1.2375    0.0000 C   0  0  0  0  0  0  0  0  0  0  0  0
    4.2868   -1.6500    0.0000 H   0  0  0  0  0  0  0  0  0  0  0  0
    4.2868   -0.0000    0.0000 H   0  0  0  0  0  0  0  0  0  0  0  0
    2.8579    0.8250    0.0000 H   0  0  0  0  0  0  0  0  0  0  0  0
    2.1434   -2.8875    0.0000 H   0  0  0  0  0  0  0  0  0  0  0  0
  1  2  2  0  0  0  0
  2  3  1  0  0  0  0
  3  4  1  0  0  0  0
  4  5  2  0  0  0  0
  5  6  1  0  0  0  0
  5  7  1  0  0  0  0
  7  8  1  0  0  0  0
  7  9  2  0  0  0  0
  9 10  1  0  0  0  0
  9 11  1  0  0  0  0
 11 12  1  0  0  0  0
 12 13  1  0  0  0  0
 13 14  1  0  0  0  0
 13 15  1  0  0  0  0
 13 16  1  0  0  0  0
 16 17  1  0  0  0  0
 16 18  1  0  0  0  0
 16 19  1  0  0  0  0
 19 20  1  0  0  0  0
 20 21  2  0  0  0  0
 20 22  1  0  0  0  0
 22 23  2  0  0  0  0
 23 24  1  0  0  0  0
 23 25  1  0  0  0  0
 25 26  1  0  0  0  0
 25 27  2  0  0  0  0
 27 28  1  0  0  0  0
 27 29  1  0  0  0  0
 22 29  1  0  0  0  0
 19 30  1  0  0  0  0
 30 31  1  0  0  0  0
 30 32  1  0  0  0  0
 30 33  1  0  0  0  0
 12 33  1  0  0  0  0
 33 34  1  0  0  0  0
 33 35  1  0  0  0  0
 11 36  2  0  0  0  0
  4 36  1  0  0  0  0
 36 37  1  0  0  0  0
  3 38  1  0  0  0  0
  3 39  1  0  0  0  0
  2 40  1  0  0  0  0
 40 41  1  0  0  0  0
 41 42  2  0  0  0  0
 42 43  1  0  0  0  0
 42 44  1  0  0  0  0
 44 45  2  0  0  0  0
 45 46  1  0  0  0  0
 45 47  1  0  0  0  0
 47 48  2  0  0  0  0
 48 49  1  0  0  0  0
 49 50  2  0  0  0  0
 50 51  1  0  0  0  0
 51 52  1  0  0  0  0
 51 53  2  0  0  0  0
 41 53  1  0  0  0  0
 47 53  1  0  0  0  0
 50 54  1  0  0  0  0
 49 55  1  0  0  0  0
 48 56  1  0  0  0  0
 40 57  1  0  0  0  0
M  END
> <Potency>
0.638846026196399

> <pIC50>
6.194603802297107

> <Outcome>
Active

> <is_active>
1

$$$$

  Mrv1921 08232120312D          

 65 70  0  0  0  0            999 V2000
    2.5998   -5.0945    0.0000 C   0  0  0  0  0  0  0  0  0  0  0  0
    1.8349   -4.7854    0.0000 N   0  0  0  0  0  0  0  0  0  0  0  0
    1.1353   -5.2226    0.0000 N   0  0  0  0  0  0  0  0  0  0  0  0
    0.5033   -4.6923    0.0000 N   0  0  0  0  0  0  0  0  0  0  0  0
    0.8123   -3.9274    0.0000 N   0  0  0  0  0  0  0  0  0  0  0  0
    1.6353   -3.9849    0.0000 C   0  0  0  0  0  0  0  0  0  0  0  0
    2.1656   -3.3529    0.0000 C   0  0  0  0  0  0  0  0  0  0  0  0
    1.8835   -2.5777    0.0000 C   0  0  0  0  0  0  0  0  0  0  0  0
    1.0710   -2.4344    0.0000 H   0  0  0  0  0  0  0  0  0  0  0  0
    2.4138   -1.9457    0.0000 C   0  0  0  0  0  0  0  0  0  0  0  0
    2.5095   -1.1263    0.0000 H   0  0  0  0  0  0  0  0  0  0  0  0
    1.8137   -1.3796    0.0000 H   0  0  0  0  0  0  0  0  0  0  0  0
    3.2262   -2.0890    0.0000 N   0  0  0  0  0  0  0  0  0  0  0  0
    3.7565   -1.4570    0.0000 C   0  0  0  0  0  0  0  0  0  0  0  0
    3.4744   -0.6817    0.0000 O   0  0  0  0  0  0  0  0  0  0  0  0
    4.5690   -1.6002    0.0000 C   0  0  0  0  0  0  0  0  0  0  0  0
    5.0993   -0.9683    0.0000 C   0  0  0  0  0  0  0  0  0  0  0  0
    5.6296   -1.6002    0.0000 C   0  0  0  0  0  0  0  0  0  0  0  0
    6.4421   -1.4570    0.0000 O   0  0  0  0  0  0  0  0  0  0  0  0
    5.3474   -2.3755    0.0000 N   0  0  0  0  0  0  0  0  0  0  0  0
    5.8777   -3.0075    0.0000 C   0  0  0  0  0  0  0  0  0  0  0  0
    6.6902   -2.8642    0.0000 C   0  0  0  0  0  0  0  0  0  0  0  0
    6.9724   -2.0890    0.0000 H   0  0  0  0  0  0  0  0  0  0  0  0
    7.2205   -3.4962    0.0000 N   0  0  0  0  0  0  0  0  0  0  0  0
    6.9383   -4.2715    0.0000 C   0  0  0  0  0  0  0  0  0  0  0  0
    7.4686   -4.9034    0.0000 H   0  0  0  0  0  0  0  0  0  0  0  0
    6.1259   -4.4147    0.0000 C   0  0  0  0  0  0  0  0  0  0  0  0
    5.8437   -5.1900    0.0000 C   0  0  0  0  0  0  0  0  0  0  0  0
    5.0312   -5.3332    0.0000 C   0  0  0  0  0  0  0  0  0  0  0  0
    4.5009   -4.7012    0.0000 C   0  0  0  0  0  0  0  0  0  0  0  0
    4.7831   -3.9260    0.0000 C   0  0  0  0  0  0  0  0  0  0  0  0
    3.9995   -3.6679    0.0000 H   0  0  0  0  0  0  0  0  0  0  0  0
    5.5956   -3.7827    0.0000 C   0  0  0  0  0  0  0  0  0  0  0  0
    3.6885   -4.8445    0.0000 H   0  0  0  0  0  0  0  0  0  0  0  0
    4.7491   -6.1085    0.0000 H   0  0  0  0  0  0  0  0  0  0  0  0
    6.3740   -5.8219    0.0000 H   0  0  0  0  0  0  0  0  0  0  0  0
    5.0177   -3.1318    0.0000 H   0  0  0  0  0  0  0  0  0  0  0  0
    4.3848   -0.5558    0.0000 C   0  0  0  0  0  0  0  0  0  0  0  0
    4.2265   -1.3654    0.0000 H   0  0  0  0  0  0  0  0  0  0  0  0
    5.0993   -0.1433    0.0000 H   0  0  0  0  0  0  0  0  0  0  0  0
    4.3848    0.2692    0.0000 C   0  0  0  0  0  0  0  0  0  0  0  0
    3.9315    0.9585    0.0000 H   0  0  0  0  0  0  0  0  0  0  0  0
    3.5612    0.3172    0.0000 H   0  0  0  0  0  0  0  0  0  0  0  0
    5.0993    0.6817    0.0000 O   0  0  0  0  0  0  0  0  0  0  0  0
    5.8138    0.2692    0.0000 C   0  0  0  0  0  0  0  0  0  0  0  0
    6.5282    0.6817    0.0000 C   0  0  0  0  0  0  0  0  0  0  0  0
    7.2427    0.2692    0.0000 C   0  0  0  0  0  0  0  0  0  0  0  0
    7.2427   -0.5558    0.0000 C   0  0  0  0  0  0  0  0  0  0  0  0
    7.9572   -0.9683    0.0000 Cl  0  0  0  0  0  0  0  0  0  0  0  0
    6.5282   -0.9683    0.0000 C   0  0  0  0  0  0  0  0  0  0  0  0
    7.2040   -1.4415    0.0000 H   0  0  0  0  0  0  0  0  0  0  0  0
    5.8138   -0.5558    0.0000 C   0  0  0  0  0  0  0  0  0  0  0  0
    7.9572    0.6817    0.0000 H   0  0  0  0  0  0  0  0  0  0  0  0
    6.5282    1.5067    0.0000 H   0  0  0  0  0  0  0  0  0  0  0  0
    4.4732   -2.4197    0.0000 H   0  0  0  0  0  0  0  0  0  0  0  0
    5.1691   -2.1664    0.0000 H   0  0  0  0  0  0  0  0  0  0  0  0
    3.5084   -2.8642    0.0000 C   0  0  0  0  0  0  0  0  0  0  0  0
    4.2517   -2.5063    0.0000 H   0  0  0  0  0  0  0  0  0  0  0  0
    2.6959   -2.7210    0.0000 H   0  0  0  0  0  0  0  0  0  0  0  0
    2.9781   -3.4962    0.0000 C   0  0  0  0  0  0  0  0  0  0  0  0
    3.7410   -3.8102    0.0000 H   0  0  0  0  0  0  0  0  0  0  0  0
    2.3247   -3.9999    0.0000 H   0  0  0  0  0  0  0  0  0  0  0  0
    2.2908   -5.8594    0.0000 H   0  0  0  0  0  0  0  0  0  0  0  0
    3.3648   -5.4035    0.0000 H   0  0  0  0  0  0  0  0  0  0  0  0
    2.9089   -4.3296    0.0000 H   0  0  0  0  0  0  0  0  0  0  0  0
  1  2  1  0  0  0  0
  2  3  1  0  0  0  0
  3  4  2  0  0  0  0
  4  5  1  0  0  0  0
  5  6  2  0  0  0  0
  2  6  1  0  0  0  0
  6  7  1  0  0  0  0
  7  8  2  0  0  0  0
  8  9  1  0  0  0  0
  8 10  1  0  0  0  0
 10 11  1  0  0  0  0
 10 12  1  0  0  0  0
 10 13  1  0  0  0  0
 13 14  1  0  0  0  0
 14 15  2  0  0  0  0
 14 16  1  0  0  0  0
 16 17  1  0  0  0  0
 17 18  1  0  0  0  0
 18 19  2  0  0  0  0
 18 20  1  0  0  0  0
 20 21  1  0  0  0  0
 21 22  2  0  0  0  0
 22 23  1  0  0  0  0
 22 24  1  0  0  0  0
 24 25  2  0  0  0  0
 25 26  1  0  0  0  0
 25 27  1  0  0  0  0
 27 28  2  0  0  0  0
 28 29  1  0  0  0  0
 29 30  2  0  0  0  0
 30 31  1  0  0  0  0
 31 32  1  0  0  0  0
 31 33  2  0  0  0  0
 21 33  1  0  0  0  0
 27 33  1  0  0  0  0
 30 34  1  0  0  0  0
 29 35  1  0  0  0  0
 28 36  1  0  0  0  0
 20 37  1  0  0  0  0
 17 38  1  0  0  0  0
 38 39  1  0  0  0  0
 38 40  1  0  0  0  0
 38 41  1  0  0  0  0
 41 42  1  0  0  0  0
 41 43  1  0  0  0  0
 41 44  1  0  0  0  0
 44 45  1  0  0  0  0
 45 46  2  0  0  0  0
 46 47  1  0  0  0  0
 47 48  2  0  0  0  0
 48 49  1  0  0  0  0
 48 50  1  0  0  0  0
 50 51  1  0  0  0  0
 50 52  2  0  0  0  0
 17 52  1  0  0  0  0
 45 52  1  0  0  0  0
 47 53  1  0  0  0  0
 46 54  1  0  0  0  0
 16 55  1  0  0  0  0
 16 56  1  0  0  0  0
 13 57  1  0  0  0  0
 57 58  1  0  0  0  0
 57 59  1  0  0  0  0
 57 60  1  0  0  0  0
  7 60  1  0  0  0  0
 60 61  1  0  0  0  0
 60 62  1  0  0  0  0
  1 63  1  0  0  0  0
  1 64  1  0  0  0  0
  1 65  1  0  0  0  0
M  END
> <Potency>
9.1763040992516

> <pIC50>
5.037332202513224

> <Outcome>
Active

> <is_active>
1

$$$$

  Mrv1921 08232120312D          

 43 46  0  0  0  0            999 V2000
    2.1434   -2.8875    0.0000 O   0  0  0  0  0  0  0  0  0  0  0  0
    1.4289   -2.4750    0.0000 C   0  0  0  0  0  0  0  0  0  0  0  0
    1.4289   -1.6500    0.0000 C   0  0  0  0  0  0  0  0  0  0  0  0
    0.7145   -1.2375    0.0000 C   0  0  0  0  0  0  0  0  0  0  0  0
    0.0000   -1.6500    0.0000 H   0  0  0  0  0  0  0  0  0  0  0  0
    0.7145   -0.4125    0.0000 N   0  0  0  0  0  0  0  0  0  0  0  0
    1.4289    0.0000    0.0000 C   0  0  0  0  0  0  0  0  0  0  0  0
    1.4289    0.8250    0.0000 H   0  0  0  0  0  0  0  0  0  0  0  0
    2.1434   -0.4125    0.0000 C   0  0  0  0  0  0  0  0  0  0  0  0
    2.8579    0.0000    0.0000 C   0  0  0  0  0  0  0  0  0  0  0  0
    3.5724   -0.4125    0.0000 C   0  0  0  0  0  0  0  0  0  0  0  0
    3.5724   -1.2375    0.0000 C   0  0  0  0  0  0  0  0  0  0  0  0
    2.8579   -1.6500    0.0000 C   0  0  0  0  0  0  0  0  0  0  0  0
    2.8579   -2.4750    0.0000 H   0  0  0  0  0  0  0  0  0  0  0  0
    2.1434   -1.2375    0.0000 C   0  0  0  0  0  0  0  0  0  0  0  0
    4.2868   -1.6500    0.0000 H   0  0  0  0  0  0  0  0  0  0  0  0
    4.2868   -0.0000    0.0000 H   0  0  0  0  0  0  0  0  0  0  0  0
    2.8579    0.8250    0.0000 H   0  0  0  0  0  0  0  0  0  0  0  0
    0.7145   -2.8875    0.0000 N   0  0  0  0  0  0  0  0  0  0  0  0
    0.7145   -3.7125    0.0000 C   0  0  0  0  0  0  0  0  0  0  0  0
    1.1678   -4.4018    0.0000 H   0  0  0  0  0  0  0  0  0  0  0  0
    1.5381   -3.7605    0.0000 H   0  0  0  0  0  0  0  0  0  0  0  0
    0.0000   -4.1250    0.0000 C   0  0  0  0  0  0  0  0  0  0  0  0
   -0.3703   -4.8622    0.0000 H   0  0  0  0  0  0  0  0  0  0  0  0
    0.3703   -4.8622    0.0000 H   0  0  0  0  0  0  0  0  0  0  0  0
   -0.7145   -3.7125    0.0000 N   0  0  0  0  0  0  0  0  0  0  0  0
   -1.4289   -4.1250    0.0000 C   0  0  0  0  0  0  0  0  0  0  0  0
   -1.4289   -4.9500    0.0000 C   0  0  0  0  0  0  0  0  0  0  0  0
   -0.7145   -5.3625    0.0000 H   0  0  0  0  0  0  0  0  0  0  0  0
   -2.1434   -5.3625    0.0000 C   0  0  0  0  0  0  0  0  0  0  0  0
   -2.1434   -6.1875    0.0000 H   0  0  0  0  0  0  0  0  0  0  0  0
   -2.8579   -4.9500    0.0000 C   0  0  0  0  0  0  0  0  0  0  0  0
   -3.5724   -5.3625    0.0000 H   0  0  0  0  0  0  0  0  0  0  0  0
   -2.8579   -4.1250    0.0000 C   0  0  0  0  0  0  0  0  0  0  0  0
   -3.5724   -3.7125    0.0000 Cl  0  0  0  0  0  0  0  0  0  0  0  0
   -2.1434   -3.7125    0.0000 C   0  0  0  0  0  0  0  0  0  0  0  0
   -2.1434   -2.8875    0.0000 H   0  0  0  0  0  0  0  0  0  0  0  0
   -0.7145   -2.8875    0.0000 C   0  0  0  0  0  0  0  0  0  0  0  0
   -1.1678   -2.1982    0.0000 H   0  0  0  0  0  0  0  0  0  0  0  0
   -1.5381   -2.8395    0.0000 H   0  0  0  0  0  0  0  0  0  0  0  0
    0.0000   -2.4750    0.0000 C   0  0  0  0  0  0  0  0  0  0  0  0
    0.7145   -2.0625    0.0000 H   0  0  0  0  0  0  0  0  0  0  0  0
    0.0000   -3.3000    0.0000 H   0  0  0  0  0  0  0  0  0  0  0  0
  1  2  2  0  0  0  0
  2  3  1  0  0  0  0
  3  4  2  0  0  0  0
  4  5  1  0  0  0  0
  4  6  1  0  0  0  0
  6  7  2  0  0  0  0
  7  8  1  0  0  0  0
  7  9  1  0  0  0  0
  9 10  2  0  0  0  0
 10 11  1  0  0  0  0
 11 12  2  0  0  0  0
 12 13  1  0  0  0  0
 13 14  1  0  0  0  0
 13 15  2  0  0  0  0
  3 15  1  0  0  0  0
  9 15  1  0  0  0  0
 12 16  1  0  0  0  0
 11 17  1  0  0  0  0
 10 18  1  0  0  0  0
  2 19  1  0  0  0  0
 19 20  1  0  0  0  0
 20 21  1  0  0  0  0
 20 22  1  0  0  0  0
 20 23  1  0  0  0  0
 23 24  1  0  0  0  0
 23 25  1  0  0  0  0
 23 26  1  0  0  0  0
 26 27  1  0  0  0  0
 27 28  2  0  0  0  0
 28 29  1  0  0  0  0
 28 30  1  0  0  0  0
 30 31  1  0  0  0  0
 30 32  2  0  0  0  0
 32 33  1  0  0  0  0
 32 34  1  0  0  0  0
 34 35  1  0  0  0  0
 34 36  2  0  0  0  0
 27 36  1  0  0  0  0
 36 37  1  0  0  0  0
 26 38  1  0  0  0  0
 38 39  1  0  0  0  0
 38 40  1  0  0  0  0
 38 41  1  0  0  0  0
 19 41  1  0  0  0  0
 41 42  1  0  0  0  0
 41 43  1  0  0  0  0
M  END
> <Potency>
1.60457755961468

> <pIC50>
5.7946392857990245

> <Outcome>
Active

> <is_active>
1

$$$$

  Mrv1921 08232120312D          

 42 44  0  0  0  0            999 V2000
    3.5724   -1.2375    0.0000 C   0  0  0  0  0  0  0  0  0  0  0  0
    4.2868   -0.8250    0.0000 O   0  0  0  0  0  0  0  0  0  0  0  0
    4.2868    0.0000    0.0000 C   0  0  0  0  0  0  0  0  0  0  0  0
    3.5724    0.4125    0.0000 C   0  0  0  0  0  0  0  0  0  0  0  0
    2.8579    0.0000    0.0000 H   0  0  0  0  0  0  0  0  0  0  0  0
    3.5724    1.2375    0.0000 C   0  0  0  0  0  0  0  0  0  0  0  0
    2.8579    1.6500    0.0000 H   0  0  0  0  0  0  0  0  0  0  0  0
    4.2868    1.6500    0.0000 C   0  0  0  0  0  0  0  0  0  0  0  0
    4.2868    2.4750    0.0000 H   0  0  0  0  0  0  0  0  0  0  0  0
    5.0013    1.2375    0.0000 C   0  0  0  0  0  0  0  0  0  0  0  0
    5.7158    1.6500    0.0000 H   0  0  0  0  0  0  0  0  0  0  0  0
    5.0013    0.4125    0.0000 C   0  0  0  0  0  0  0  0  0  0  0  0
    5.7158    0.0000    0.0000 O   0  0  0  0  0  0  0  0  0  0  0  0
    6.4302    0.4125    0.0000 C   0  0  0  0  0  0  0  0  0  0  0  0
    7.1447    0.0000    0.0000 C   0  0  0  0  0  0  0  0  0  0  0  0
    7.8592    0.4125    0.0000 N   0  0  0  0  0  0  0  0  0  0  0  0
    8.5737    0.0000    0.0000 C   0  0  0  0  0  0  0  0  0  0  0  0
    8.5737   -0.8250    0.0000 O   0  0  0  0  0  0  0  0  0  0  0  0
    9.2881    0.4125    0.0000 C   0  0  0  0  0  0  0  0  0  0  0  0
    9.2881    1.2375    0.0000 C   0  0  0  0  0  0  0  0  0  0  0  0
    8.5737    1.6500    0.0000 H   0  0  0  0  0  0  0  0  0  0  0  0
   10.0026    1.6500    0.0000 N   0  0  0  0  0  0  0  0  0  0  0  0
   10.7171    1.2375    0.0000 C   0  0  0  0  0  0  0  0  0  0  0  0
   11.4315    1.6500    0.0000 H   0  0  0  0  0  0  0  0  0  0  0  0
   10.7171    0.4125    0.0000 C   0  0  0  0  0  0  0  0  0  0  0  0
   11.4315    0.0000    0.0000 C   0  0  0  0  0  0  0  0  0  0  0  0
   11.4315   -0.8250    0.0000 C   0  0  0  0  0  0  0  0  0  0  0  0
   10.7171   -1.2375    0.0000 C   0  0  0  0  0  0  0  0  0  0  0  0
   10.0026   -0.8250    0.0000 C   0  0  0  0  0  0  0  0  0  0  0  0
    9.2881   -1.2375    0.0000 H   0  0  0  0  0  0  0  0  0  0  0  0
   10.0026    0.0000    0.0000 C   0  0  0  0  0  0  0  0  0  0  0  0
   10.7171   -2.0625    0.0000 H   0  0  0  0  0  0  0  0  0  0  0  0
   12.1460   -1.2375    0.0000 H   0  0  0  0  0  0  0  0  0  0  0  0
   12.1460    0.4125    0.0000 H   0  0  0  0  0  0  0  0  0  0  0  0
    7.8592    1.2375    0.0000 H   0  0  0  0  0  0  0  0  0  0  0  0
    6.7745   -0.7372    0.0000 H   0  0  0  0  0  0  0  0  0  0  0  0
    7.5150   -0.7372    0.0000 H   0  0  0  0  0  0  0  0  0  0  0  0
    6.8005    1.1497    0.0000 H   0  0  0  0  0  0  0  0  0  0  0  0
    6.0600    1.1497    0.0000 H   0  0  0  0  0  0  0  0  0  0  0  0
    3.1599   -0.5230    0.0000 H   0  0  0  0  0  0  0  0  0  0  0  0
    2.8579   -1.6500    0.0000 H   0  0  0  0  0  0  0  0  0  0  0  0
    3.9849   -1.9520    0.0000 H   0  0  0  0  0  0  0  0  0  0  0  0
  1  2  1  0  0  0  0
  2  3  1  0  0  0  0
  3  4  2  0  0  0  0
  4  5  1  0  0  0  0
  4  6  1  0  0  0  0
  6  7  1  0  0  0  0
  6  8  2  0  0  0  0
  8  9  1  0  0  0  0
  8 10  1  0  0  0  0
 10 11  1  0  0  0  0
 10 12  2  0  0  0  0
  3 12  1  0  0  0  0
 12 13  1  0  0  0  0
 13 14  1  0  0  0  0
 14 15  1  0  0  0  0
 15 16  1  0  0  0  0
 16 17  1  0  0  0  0
 17 18  2  0  0  0  0
 17 19  1  0  0  0  0
 19 20  2  0  0  0  0
 20 21  1  0  0  0  0
 20 22  1  0  0  0  0
 22 23  2  0  0  0  0
 23 24  1  0  0  0  0
 23 25  1  0  0  0  0
 25 26  2  0  0  0  0
 26 27  1  0  0  0  0
 27 28  2  0  0  0  0
 28 29  1  0  0  0  0
 29 30  1  0  0  0  0
 29 31  2  0  0  0  0
 19 31  1  0  0  0  0
 25 31  1  0  0  0  0
 28 32  1  0  0  0  0
 27 33  1  0  0  0  0
 26 34  1  0  0  0  0
 16 35  1  0  0  0  0
 15 36  1  0  0  0  0
 15 37  1  0  0  0  0
 14 38  1  0  0  0  0
 14 39  1  0  0  0  0
  1 40  1  0  0  0  0
  1 41  1  0  0  0  0
  1 42  1  0  0  0  0
M  END
> <Potency>
3.24130452816033

> <pIC50>
5.489280164066034

> <Outcome>
Active

> <is_active>
1

$$$$

  Mrv1921 08232120312D          

 52 55  0  0  0  0            999 V2000
   -2.1434   -6.1875    0.0000 C   0  0  0  0  0  0  0  0  0  0  0  0
   -2.1434   -5.3625    0.0000 N   0  0  0  0  0  0  0  0  0  0  0  0
   -2.8579   -4.9500    0.0000 C   0  0  0  0  0  0  0  0  0  0  0  0
   -2.4454   -4.2355    0.0000 H   0  0  0  0  0  0  0  0  0  0  0  0
   -3.5724   -4.5375    0.0000 H   0  0  0  0  0  0  0  0  0  0  0  0
   -3.2704   -5.6645    0.0000 H   0  0  0  0  0  0  0  0  0  0  0  0
   -1.4289   -4.9500    0.0000 C   0  0  0  0  0  0  0  0  0  0  0  0
   -1.4289   -4.1250    0.0000 C   0  0  0  0  0  0  0  0  0  0  0  0
   -2.1434   -3.7125    0.0000 H   0  0  0  0  0  0  0  0  0  0  0  0
   -0.7145   -3.7125    0.0000 C   0  0  0  0  0  0  0  0  0  0  0  0
   -0.7145   -2.8875    0.0000 H   0  0  0  0  0  0  0  0  0  0  0  0
    0.0000   -4.1250    0.0000 C   0  0  0  0  0  0  0  0  0  0  0  0
    0.7145   -3.7125    0.0000 N   0  0  0  0  0  0  0  0  0  0  0  0
    1.4289   -4.1250    0.0000 C   0  0  0  0  0  0  0  0  0  0  0  0
    1.4289   -4.9500    0.0000 C   0  0  0  0  0  0  0  0  0  0  0  0
    2.0964   -5.4349    0.0000 C   0  0  0  0  0  0  0  0  0  0  0  0
    2.8810   -5.1800    0.0000 H   0  0  0  0  0  0  0  0  0  0  0  0
    1.8414   -6.2195    0.0000 C   0  0  0  0  0  0  0  0  0  0  0  0
    2.3264   -6.8870    0.0000 H   0  0  0  0  0  0  0  0  0  0  0  0
    1.0164   -6.2195    0.0000 S   0  0  0  0  0  0  0  0  0  0  0  0
    0.7615   -5.4349    0.0000 C   0  0  0  0  0  0  0  0  0  0  0  0
    0.1092   -5.9401    0.0000 H   0  0  0  0  0  0  0  0  0  0  0  0
    2.2525   -4.0770    0.0000 H   0  0  0  0  0  0  0  0  0  0  0  0
    1.8823   -3.4357    0.0000 H   0  0  0  0  0  0  0  0  0  0  0  0
    0.7145   -2.8875    0.0000 C   0  0  0  0  0  0  0  0  0  0  0  0
    0.0000   -2.4750    0.0000 O   0  0  0  0  0  0  0  0  0  0  0  0
    1.4289   -2.4750    0.0000 C   0  0  0  0  0  0  0  0  0  0  0  0
    1.4289   -1.6500    0.0000 C   0  0  0  0  0  0  0  0  0  0  0  0
    0.7145   -1.2375    0.0000 C   0  0  0  0  0  0  0  0  0  0  0  0
    0.0000   -1.6500    0.0000 H   0  0  0  0  0  0  0  0  0  0  0  0
    0.7145   -0.4125    0.0000 N   0  0  0  0  0  0  0  0  0  0  0  0
    1.4289    0.0000    0.0000 C   0  0  0  0  0  0  0  0  0  0  0  0
    1.4289    0.8250    0.0000 H   0  0  0  0  0  0  0  0  0  0  0  0
    2.1434   -0.4125    0.0000 C   0  0  0  0  0  0  0  0  0  0  0  0
    2.8579    0.0000    0.0000 C   0  0  0  0  0  0  0  0  0  0  0  0
    3.5724   -0.4125    0.0000 C   0  0  0  0  0  0  0  0  0  0  0  0
    3.5724   -1.2375    0.0000 C   0  0  0  0  0  0  0  0  0  0  0  0
    2.8579   -1.6500    0.0000 C   0  0  0  0  0  0  0  0  0  0  0  0
    2.8579   -2.4750    0.0000 H   0  0  0  0  0  0  0  0  0  0  0  0
    2.1434   -1.2375    0.0000 C   0  0  0  0  0  0  0  0  0  0  0  0
    4.2868   -1.6500    0.0000 H   0  0  0  0  0  0  0  0  0  0  0  0
    4.2868   -0.0000    0.0000 H   0  0  0  0  0  0  0  0  0  0  0  0
    2.8579    0.8250    0.0000 H   0  0  0  0  0  0  0  0  0  0  0  0
    1.8823   -3.1643    0.0000 H   0  0  0  0  0  0  0  0  0  0  0  0
    2.2525   -2.5230    0.0000 H   0  0  0  0  0  0  0  0  0  0  0  0
    0.0000   -4.9500    0.0000 C   0  0  0  0  0  0  0  0  0  0  0  0
   -0.0179   -5.7748    0.0000 H   0  0  0  0  0  0  0  0  0  0  0  0
   -0.7145   -5.3625    0.0000 C   0  0  0  0  0  0  0  0  0  0  0  0
   -1.1308   -6.0747    0.0000 H   0  0  0  0  0  0  0  0  0  0  0  0
   -2.9684   -6.1875    0.0000 H   0  0  0  0  0  0  0  0  0  0  0  0
   -2.1434   -7.0125    0.0000 H   0  0  0  0  0  0  0  0  0  0  0  0
   -1.3184   -6.1875    0.0000 H   0  0  0  0  0  0  0  0  0  0  0  0
  1  2  1  0  0  0  0
  2  3  1  0  0  0  0
  3  4  1  0  0  0  0
  3  5  1  0  0  0  0
  3  6  1  0  0  0  0
  2  7  1  0  0  0  0
  7  8  2  0  0  0  0
  8  9  1  0  0  0  0
  8 10  1  0  0  0  0
 10 11  1  0  0  0  0
 10 12  2  0  0  0  0
 12 13  1  0  0  0  0
 13 14  1  0  0  0  0
 14 15  1  0  0  0  0
 15 16  1  0  0  0  0
 16 17  1  0  0  0  0
 16 18  2  0  0  0  0
 18 19  1  0  0  0  0
 18 20  1  0  0  0  0
 20 21  1  0  0  0  0
 15 21  2  0  0  0  0
 21 22  1  0  0  0  0
 14 23  1  0  0  0  0
 14 24  1  0  0  0  0
 13 25  1  0  0  0  0
 25 26  2  0  0  0  0
 25 27  1  0  0  0  0
 27 28  1  0  0  0  0
 28 29  2  0  0  0  0
 29 30  1  0  0  0  0
 29 31  1  0  0  0  0
 31 32  2  0  0  0  0
 32 33  1  0  0  0  0
 32 34  1  0  0  0  0
 34 35  2  0  0  0  0
 35 36  1  0  0  0  0
 36 37  2  0  0  0  0
 37 38  1  0  0  0  0
 38 39  1  0  0  0  0
 38 40  2  0  0  0  0
 28 40  1  0  0  0  0
 34 40  1  0  0  0  0
 37 41  1  0  0  0  0
 36 42  1  0  0  0  0
 35 43  1  0  0  0  0
 27 44  1  0  0  0  0
 27 45  1  0  0  0  0
 12 46  1  0  0  0  0
 46 47  1  0  0  0  0
 46 48  2  0  0  0  0
  7 48  1  0  0  0  0
 48 49  1  0  0  0  0
  1 50  1  0  0  0  0
  1 51  1  0  0  0  0
  1 52  1  0  0  0  0
M  END
> <Potency>
0.284634014246283

> <pIC50>
6.545713202225099

> <Outcome>
Active

> <is_active>
1

$$$$

  Mrv1921 08232120312D          

 37 40  0  0  0  0            999 V2000
    2.1434   -2.8875    0.0000 O   0  0  0  0  0  0  0  0  0  0  0  0
    1.4289   -2.4750    0.0000 C   0  0  0  0  0  0  0  0  0  0  0  0
    0.7145   -2.8875    0.0000 N   0  0  0  0  0  0  0  0  0  0  0  0
    0.7145   -3.7125    0.0000 C   0  0  0  0  0  0  0  0  0  0  0  0
    1.3819   -4.1974    0.0000 N   0  0  0  0  0  0  0  0  0  0  0  0
    1.1270   -4.9820    0.0000 N   0  0  0  0  0  0  0  0  0  0  0  0
    0.3020   -4.9820    0.0000 C   0  0  0  0  0  0  0  0  0  0  0  0
   -0.1830   -5.6495    0.0000 H   0  0  0  0  0  0  0  0  0  0  0  0
    0.0470   -4.1974    0.0000 N   0  0  0  0  0  0  0  0  0  0  0  0
   -0.7376   -3.9425    0.0000 C   0  0  0  0  0  0  0  0  0  0  0  0
   -1.5446   -4.1140    0.0000 C   0  0  0  0  0  0  0  0  0  0  0  0
   -2.3601   -4.2383    0.0000 H   0  0  0  0  0  0  0  0  0  0  0  0
   -1.7534   -4.9121    0.0000 H   0  0  0  0  0  0  0  0  0  0  0  0
   -1.2896   -3.3294    0.0000 C   0  0  0  0  0  0  0  0  0  0  0  0
   -0.9895   -2.5609    0.0000 H   0  0  0  0  0  0  0  0  0  0  0  0
   -1.8764   -2.7494    0.0000 H   0  0  0  0  0  0  0  0  0  0  0  0
   -0.2883   -3.2506    0.0000 H   0  0  0  0  0  0  0  0  0  0  0  0
    0.0000   -2.4750    0.0000 H   0  0  0  0  0  0  0  0  0  0  0  0
    1.4289   -1.6500    0.0000 C   0  0  0  0  0  0  0  0  0  0  0  0
    0.7145   -1.2375    0.0000 C   0  0  0  0  0  0  0  0  0  0  0  0
   -0.1091   -1.2855    0.0000 H   0  0  0  0  0  0  0  0  0  0  0  0
    0.2611   -1.9268    0.0000 H   0  0  0  0  0  0  0  0  0  0  0  0
    0.7145   -0.4125    0.0000 C   0  0  0  0  0  0  0  0  0  0  0  0
    0.2611    0.2768    0.0000 H   0  0  0  0  0  0  0  0  0  0  0  0
   -0.1091   -0.3645    0.0000 H   0  0  0  0  0  0  0  0  0  0  0  0
    1.4289    0.0000    0.0000 O   0  0  0  0  0  0  0  0  0  0  0  0
    2.1434   -0.4125    0.0000 C   0  0  0  0  0  0  0  0  0  0  0  0
    2.8579    0.0000    0.0000 C   0  0  0  0  0  0  0  0  0  0  0  0
    3.5724   -0.4125    0.0000 C   0  0  0  0  0  0  0  0  0  0  0  0
    3.5724   -1.2375    0.0000 C   0  0  0  0  0  0  0  0  0  0  0  0
    4.2868   -1.6500    0.0000 Cl  0  0  0  0  0  0  0  0  0  0  0  0
    2.8579   -1.6500    0.0000 C   0  0  0  0  0  0  0  0  0  0  0  0
    3.2704   -2.3645    0.0000 H   0  0  0  0  0  0  0  0  0  0  0  0
    2.1434   -1.2375    0.0000 C   0  0  0  0  0  0  0  0  0  0  0  0
    4.2868   -0.0000    0.0000 H   0  0  0  0  0  0  0  0  0  0  0  0
    2.8579    0.8250    0.0000 H   0  0  0  0  0  0  0  0  0  0  0  0
    2.1434   -2.0625    0.0000 H   0  0  0  0  0  0  0  0  0  0  0  0
  1  2  2  0  0  0  0
  2  3  1  0  0  0  0
  3  4  1  0  0  0  0
  4  5  2  0  0  0  0
  5  6  1  0  0  0  0
  6  7  2  0  0  0  0
  7  8  1  0  0  0  0
  7  9  1  0  0  0  0
  4  9  1  0  0  0  0
  9 10  1  0  0  0  0
 10 11  1  0  0  0  0
 11 12  1  0  0  0  0
 11 13  1  0  0  0  0
 11 14  1  0  0  0  0
 10 14  1  0  0  0  0
 14 15  1  0  0  0  0
 14 16  1  0  0  0  0
 10 17  1  0  0  0  0
  3 18  1  0  0  0  0
  2 19  1  0  0  0  0
 19 20  1  0  0  0  0
 20 21  1  0  0  0  0
 20 22  1  0  0  0  0
 20 23  1  0  0  0  0
 23 24  1  0  0  0  0
 23 25  1  0  0  0  0
 23 26  1  0  0  0  0
 26 27  1  0  0  0  0
 27 28  2  0  0  0  0
 28 29  1  0  0  0  0
 29 30  2  0  0  0  0
 30 31  1  0  0  0  0
 30 32  1  0  0  0  0
 32 33  1  0  0  0  0
 32 34  2  0  0  0  0
 19 34  1  0  0  0  0
 27 34  1  0  0  0  0
 29 35  1  0  0  0  0
 28 36  1  0  0  0  0
 19 37  1  0  0  0  0
M  END
> <Potency>
0.597852975081875

> <pIC50>
6.22340560524454

> <Outcome>
Active

> <is_active>
1

$$$$

  Mrv1921 08232120312D          

 74 78  0  0  0  0            999 V2000
    1.8564    3.8978    0.0000 C   0  0  0  0  0  0  0  0  0  0  0  0
    2.3965    3.2741    0.0000 C   0  0  0  0  0  0  0  0  0  0  0  0
    1.7729    2.7340    0.0000 C   0  0  0  0  0  0  0  0  0  0  0  0
    0.9900    2.4737    0.0000 H   0  0  0  0  0  0  0  0  0  0  0  0
    1.7138    1.9111    0.0000 H   0  0  0  0  0  0  0  0  0  0  0  0
    2.5105    2.3645    0.0000 H   0  0  0  0  0  0  0  0  0  0  0  0
    3.0202    3.8142    0.0000 C   0  0  0  0  0  0  0  0  0  0  0  0
    3.2805    3.0314    0.0000 H   0  0  0  0  0  0  0  0  0  0  0  0
    3.8430    3.7551    0.0000 H   0  0  0  0  0  0  0  0  0  0  0  0
    3.3896    4.5518    0.0000 H   0  0  0  0  0  0  0  0  0  0  0  0
    2.9366    2.6505    0.0000 C   0  0  0  0  0  0  0  0  0  0  0  0
    3.7467    2.8064    0.0000 C   0  0  0  0  0  0  0  0  0  0  0  0
    4.5333    3.0551    0.0000 H   0  0  0  0  0  0  0  0  0  0  0  0
    4.2868    2.1827    0.0000 C   0  0  0  0  0  0  0  0  0  0  0  0
    4.8269    1.5591    0.0000 H   0  0  0  0  0  0  0  0  0  0  0  0
    4.0168    1.4032    0.0000 C   0  0  0  0  0  0  0  0  0  0  0  0
    4.5569    0.7796    0.0000 N   0  0  0  0  0  0  0  0  0  0  0  0
    4.2868    0.0000    0.0000 C   0  0  0  0  0  0  0  0  0  0  0  0
    4.8269   -0.6236    0.0000 O   0  0  0  0  0  0  0  0  0  0  0  0
    3.4767   -0.1559    0.0000 C   0  0  0  0  0  0  0  0  0  0  0  0
    3.1266   -0.9030    0.0000 C   0  0  0  0  0  0  0  0  0  0  0  0
    3.5253   -1.6253    0.0000 H   0  0  0  0  0  0  0  0  0  0  0  0
    2.3080   -0.8009    0.0000 C   0  0  0  0  0  0  0  0  0  0  0  0
    1.7442   -1.4032    0.0000 H   0  0  0  0  0  0  0  0  0  0  0  0
    2.1521    0.0092    0.0000 C   0  0  0  0  0  0  0  0  0  0  0  0
    1.4050    0.3593    0.0000 H   0  0  0  0  0  0  0  0  0  0  0  0
    2.8744    0.4079    0.0000 O   0  0  0  0  0  0  0  0  0  0  0  0
    5.3670    0.9355    0.0000 C   0  0  0  0  0  0  0  0  0  0  0  0
    5.9071    0.3118    0.0000 C   0  0  0  0  0  0  0  0  0  0  0  0
    5.6370   -0.4677    0.0000 O   0  0  0  0  0  0  0  0  0  0  0  0
    6.7172    0.4677    0.0000 N   0  0  0  0  0  0  0  0  0  0  0  0
    7.2573   -0.1559    0.0000 C   0  0  0  0  0  0  0  0  0  0  0  0
    8.0675    0.0000    0.0000 C   0  0  0  0  0  0  0  0  0  0  0  0
    8.6075   -0.6236    0.0000 C   0  0  0  0  0  0  0  0  0  0  0  0
    9.4177   -0.4677    0.0000 C   0  0  0  0  0  0  0  0  0  0  0  0
    9.6877    0.3118    0.0000 H   0  0  0  0  0  0  0  0  0  0  0  0
    9.9578   -1.0914    0.0000 C   0  0  0  0  0  0  0  0  0  0  0  0
   10.7679   -0.9355    0.0000 H   0  0  0  0  0  0  0  0  0  0  0  0
    9.6877   -1.8709    0.0000 C   0  0  0  0  0  0  0  0  0  0  0  0
   10.2278   -2.4946    0.0000 H   0  0  0  0  0  0  0  0  0  0  0  0
    8.8776   -2.0268    0.0000 C   0  0  0  0  0  0  0  0  0  0  0  0
    8.6075   -2.8064    0.0000 F   0  0  0  0  0  0  0  0  0  0  0  0
    8.3375   -1.4032    0.0000 C   0  0  0  0  0  0  0  0  0  0  0  0
    7.5274   -1.5591    0.0000 H   0  0  0  0  0  0  0  0  0  0  0  0
    8.6586    0.5754    0.0000 H   0  0  0  0  0  0  0  0  0  0  0  0
    7.9589    0.8178    0.0000 H   0  0  0  0  0  0  0  0  0  0  0  0
    6.6661   -0.7313    0.0000 H   0  0  0  0  0  0  0  0  0  0  0  0
    7.3659   -0.9737    0.0000 H   0  0  0  0  0  0  0  0  0  0  0  0
    6.1771    1.0914    0.0000 H   0  0  0  0  0  0  0  0  0  0  0  0
    5.6370    1.7150    0.0000 C   0  0  0  0  0  0  0  0  0  0  0  0
    5.0970    2.3387    0.0000 C   0  0  0  0  0  0  0  0  0  0  0  0
    5.9071    2.4946    0.0000 H   0  0  0  0  0  0  0  0  0  0  0  0
    5.3670    3.1182    0.0000 C   0  0  0  0  0  0  0  0  0  0  0  0
    4.8269    3.7418    0.0000 O   0  0  0  0  0  0  0  0  0  0  0  0
    6.1771    3.2741    0.0000 N   0  0  0  0  0  0  0  0  0  0  0  0
    6.4472    4.0537    0.0000 H   0  0  0  0  0  0  0  0  0  0  0  0
    6.7172    2.6505    0.0000 C   0  0  0  0  0  0  0  0  0  0  0  0
    7.5274    2.8064    0.0000 C   0  0  0  0  0  0  0  0  0  0  0  0
    8.0675    2.1827    0.0000 C   0  0  0  0  0  0  0  0  0  0  0  0
    7.7974    1.4032    0.0000 C   0  0  0  0  0  0  0  0  0  0  0  0
    6.9873    1.2473    0.0000 C   0  0  0  0  0  0  0  0  0  0  0  0
    7.2573    2.0268    0.0000 H   0  0  0  0  0  0  0  0  0  0  0  0
    6.4472    1.8709    0.0000 C   0  0  0  0  0  0  0  0  0  0  0  0
    8.6220    1.3767    0.0000 H   0  0  0  0  0  0  0  0  0  0  0  0
    8.8776    2.3387    0.0000 H   0  0  0  0  0  0  0  0  0  0  0  0
    7.7974    3.5859    0.0000 H   0  0  0  0  0  0  0  0  0  0  0  0
    5.0970    0.1559    0.0000 H   0  0  0  0  0  0  0  0  0  0  0  0
    3.2066    1.2473    0.0000 C   0  0  0  0  0  0  0  0  0  0  0  0
    2.3933    1.1090    0.0000 H   0  0  0  0  0  0  0  0  0  0  0  0
    2.6666    1.8709    0.0000 C   0  0  0  0  0  0  0  0  0  0  0  0
    3.4767    2.0268    0.0000 H   0  0  0  0  0  0  0  0  0  0  0  0
    2.4801    4.4378    0.0000 H   0  0  0  0  0  0  0  0  0  0  0  0
    1.3163    4.5214    0.0000 H   0  0  0  0  0  0  0  0  0  0  0  0
    1.2328    3.3577    0.0000 H   0  0  0  0  0  0  0  0  0  0  0  0
  1  2  1  0  0  0  0
  2  3  1  0  0  0  0
  3  4  1  0  0  0  0
  3  5  1  0  0  0  0
  3  6  1  0  0  0  0
  2  7  1  0  0  0  0
  7  8  1  0  0  0  0
  7  9  1  0  0  0  0
  7 10  1  0  0  0  0
  2 11  1  0  0  0  0
 11 12  2  0  0  0  0
 12 13  1  0  0  0  0
 12 14  1  0  0  0  0
 14 15  1  0  0  0  0
 14 16  2  0  0  0  0
 16 17  1  0  0  0  0
 17 18  1  0  0  0  0
 18 19  2  0  0  0  0
 18 20  1  0  0  0  0
 20 21  2  0  0  0  0
 21 22  1  0  0  0  0
 21 23  1  0  0  0  0
 23 24  1  0  0  0  0
 23 25  2  0  0  0  0
 25 26  1  0  0  0  0
 25 27  1  0  0  0  0
 20 27  1  0  0  0  0
 17 28  1  0  0  0  0
 28 29  1  0  0  0  0
 29 30  2  0  0  0  0
 29 31  1  0  0  0  0
 31 32  1  0  0  0  0
 32 33  1  0  0  0  0
 33 34  1  0  0  0  0
 34 35  2  0  0  0  0
 35 36  1  0  0  0  0
 35 37  1  0  0  0  0
 37 38  1  0  0  0  0
 37 39  2  0  0  0  0
 39 40  1  0  0  0  0
 39 41  1  0  0  0  0
 41 42  1  0  0  0  0
 41 43  2  0  0  0  0
 34 43  1  0  0  0  0
 43 44  1  0  0  0  0
 33 45  1  0  0  0  0
 33 46  1  0  0  0  0
 32 47  1  0  0  0  0
 32 48  1  0  0  0  0
 31 49  1  0  0  0  0
 28 50  1  0  0  0  0
 50 51  4  0  0  0  0
 51 52  1  0  0  0  0
 51 53  4  0  0  0  0
 53 54  2  0  0  0  0
 53 55  4  0  0  0  0
 55 56  1  0  0  0  0
 55 57  4  0  0  0  0
 57 58  4  0  0  0  0
 58 59  4  0  0  0  0
 59 60  4  0  0  0  0
 60 61  4  0  0  0  0
 61 62  1  0  0  0  0
 61 63  4  0  0  0  0
 50 63  4  0  0  0  0
 57 63  4  0  0  0  0
 60 64  1  0  0  0  0
 59 65  1  0  0  0  0
 58 66  1  0  0  0  0
 28 67  1  0  0  0  0
 16 68  1  0  0  0  0
 68 69  1  0  0  0  0
 68 70  2  0  0  0  0
 11 70  1  0  0  0  0
 70 71  1  0  0  0  0
  1 72  1  0  0  0  0
  1 73  1  0  0  0  0
  1 74  1  0  0  0  0
M  END
> <Potency>
2.27850420938138

> <pIC50>
5.642350164751307

> <Outcome>
Active

> <is_active>
1

$$$$

  Mrv1921 08232120312D          

 56 60  0  0  0  0            999 V2000
    5.2972   -6.3584    0.0000 C   0  0  0  0  0  0  0  0  0  0  0  0
    4.5828   -6.7709    0.0000 O   0  0  0  0  0  0  0  0  0  0  0  0
    3.8683   -6.3584    0.0000 C   0  0  0  0  0  0  0  0  0  0  0  0
    3.0714   -6.5719    0.0000 C   0  0  0  0  0  0  0  0  0  0  0  0
    2.3569   -6.9844    0.0000 H   0  0  0  0  0  0  0  0  0  0  0  0
    3.0714   -7.3969    0.0000 H   0  0  0  0  0  0  0  0  0  0  0  0
    2.8579   -5.7750    0.0000 N   0  0  0  0  0  0  0  0  0  0  0  0
    2.1434   -5.3625    0.0000 S   0  0  0  0  0  0  0  0  0  0  0  0
    2.5559   -4.6480    0.0000 O   0  0  0  0  0  0  0  0  0  0  0  0
    1.7309   -6.0770    0.0000 O   0  0  0  0  0  0  0  0  0  0  0  0
    1.4289   -4.9500    0.0000 N   0  0  0  0  0  0  0  0  0  0  0  0
    0.7145   -5.3625    0.0000 C   0  0  0  0  0  0  0  0  0  0  0  0
    0.3442   -6.0997    0.0000 H   0  0  0  0  0  0  0  0  0  0  0  0
    1.0847   -6.0997    0.0000 H   0  0  0  0  0  0  0  0  0  0  0  0
    0.0000   -4.9500    0.0000 C   0  0  0  0  0  0  0  0  0  0  0  0
   -0.7145   -5.3625    0.0000 C   0  0  0  0  0  0  0  0  0  0  0  0
   -1.4289   -4.9500    0.0000 C   0  0  0  0  0  0  0  0  0  0  0  0
   -1.4289   -4.1250    0.0000 C   0  0  0  0  0  0  0  0  0  0  0  0
   -2.1434   -3.7125    0.0000 Cl  0  0  0  0  0  0  0  0  0  0  0  0
   -0.7145   -3.7125    0.0000 C   0  0  0  0  0  0  0  0  0  0  0  0
   -0.7145   -2.8875    0.0000 H   0  0  0  0  0  0  0  0  0  0  0  0
    0.0000   -4.1250    0.0000 C   0  0  0  0  0  0  0  0  0  0  0  0
    0.7145   -3.7125    0.0000 C   0  0  0  0  0  0  0  0  0  0  0  0
    0.7145   -2.8875    0.0000 C   0  0  0  0  0  0  0  0  0  0  0  0
    0.0000   -2.4750    0.0000 O   0  0  0  0  0  0  0  0  0  0  0  0
    1.4289   -2.4750    0.0000 N   0  0  0  0  0  0  0  0  0  0  0  0
    1.4289   -1.6500    0.0000 C   0  0  0  0  0  0  0  0  0  0  0  0
    0.7145   -1.2375    0.0000 C   0  0  0  0  0  0  0  0  0  0  0  0
    0.0000   -1.6500    0.0000 H   0  0  0  0  0  0  0  0  0  0  0  0
    0.7145   -0.4125    0.0000 N   0  0  0  0  0  0  0  0  0  0  0  0
    1.4289    0.0000    0.0000 C   0  0  0  0  0  0  0  0  0  0  0  0
    1.4289    0.8250    0.0000 H   0  0  0  0  0  0  0  0  0  0  0  0
    2.1434   -0.4125    0.0000 C   0  0  0  0  0  0  0  0  0  0  0  0
    2.8579    0.0000    0.0000 C   0  0  0  0  0  0  0  0  0  0  0  0
    3.5724   -0.4125    0.0000 C   0  0  0  0  0  0  0  0  0  0  0  0
    3.5724   -1.2375    0.0000 C   0  0  0  0  0  0  0  0  0  0  0  0
    2.8579   -1.6500    0.0000 C   0  0  0  0  0  0  0  0  0  0  0  0
    2.8579   -2.4750    0.0000 H   0  0  0  0  0  0  0  0  0  0  0  0
    2.1434   -1.2375    0.0000 C   0  0  0  0  0  0  0  0  0  0  0  0
    4.2868   -1.6500    0.0000 H   0  0  0  0  0  0  0  0  0  0  0  0
    4.2868   -0.0000    0.0000 H   0  0  0  0  0  0  0  0  0  0  0  0
    2.8579    0.8250    0.0000 H   0  0  0  0  0  0  0  0  0  0  0  0
    2.2539   -2.4750    0.0000 H   0  0  0  0  0  0  0  0  0  0  0  0
    1.4289   -3.3000    0.0000 H   0  0  0  0  0  0  0  0  0  0  0  0
    1.4289   -4.1250    0.0000 C   0  0  0  0  0  0  0  0  0  0  0  0
    2.2042   -4.4072    0.0000 H   0  0  0  0  0  0  0  0  0  0  0  0
    2.2042   -3.8428    0.0000 H   0  0  0  0  0  0  0  0  0  0  0  0
   -2.1434   -5.3625    0.0000 H   0  0  0  0  0  0  0  0  0  0  0  0
   -0.7145   -6.1875    0.0000 H   0  0  0  0  0  0  0  0  0  0  0  0
    3.6548   -5.5615    0.0000 C   0  0  0  0  0  0  0  0  0  0  0  0
    4.0116   -4.8176    0.0000 H   0  0  0  0  0  0  0  0  0  0  0  0
    3.3474   -4.7959    0.0000 H   0  0  0  0  0  0  0  0  0  0  0  0
    4.5228   -5.8561    0.0000 H   0  0  0  0  0  0  0  0  0  0  0  0
    5.7097   -7.0728    0.0000 H   0  0  0  0  0  0  0  0  0  0  0  0
    6.0117   -5.9459    0.0000 H   0  0  0  0  0  0  0  0  0  0  0  0
    4.8847   -5.6439    0.0000 H   0  0  0  0  0  0  0  0  0  0  0  0
  1  2  1  0  0  0  0
  2  3  1  0  0  0  0
  3  4  1  0  0  0  0
  4  5  1  0  0  0  0
  4  6  1  0  0  0  0
  4  7  1  0  0  0  0
  7  8  1  0  0  0  0
  8  9  2  0  0  0  0
  8 10  2  0  0  0  0
  8 11  1  0  0  0  0
 11 12  1  0  0  0  0
 12 13  1  0  0  0  0
 12 14  1  0  0  0  0
 12 15  1  0  0  0  0
 15 16  2  0  0  0  0
 16 17  1  0  0  0  0
 17 18  2  0  0  0  0
 18 19  1  0  0  0  0
 18 20  1  0  0  0  0
 20 21  1  0  0  0  0
 20 22  2  0  0  0  0
 15 22  1  0  0  0  0
 22 23  1  0  0  0  0
 23 24  1  0  0  0  0
 24 25  2  0  0  0  0
 24 26  1  0  0  0  0
 26 27  1  0  0  0  0
 27 28  2  0  0  0  0
 28 29  1  0  0  0  0
 28 30  1  0  0  0  0
 30 31  2  0  0  0  0
 31 32  1  0  0  0  0
 31 33  1  0  0  0  0
 33 34  2  0  0  0  0
 34 35  1  0  0  0  0
 35 36  2  0  0  0  0
 36 37  1  0  0  0  0
 37 38  1  0  0  0  0
 37 39  2  0  0  0  0
 27 39  1  0  0  0  0
 33 39  1  0  0  0  0
 36 40  1  0  0  0  0
 35 41  1  0  0  0  0
 34 42  1  0  0  0  0
 26 43  1  0  0  0  0
 23 44  1  0  0  0  0
 23 45  1  0  0  0  0
 11 45  1  0  0  0  0
 45 46  1  0  0  0  0
 45 47  1  0  0  0  0
 17 48  1  0  0  0  0
 16 49  1  0  0  0  0
  7 50  1  0  0  0  0
  3 50  1  0  0  0  0
 50 51  1  0  0  0  0
 50 52  1  0  0  0  0
  3 53  1  0  0  0  0
  1 54  1  0  0  0  0
  1 55  1  0  0  0  0
  1 56  1  0  0  0  0
M  END
> <Potency>
0.0593804212464374

> <pIC50>
7.226356725831344

> <Outcome>
Active

> <is_active>
1

$$$$

  Mrv1921 08232120312D          

 44 47  0  0  0  0            999 V2000
    2.1434   -7.0125    0.0000 N   0  0  0  0  0  0  0  0  0  0  0  0
    2.1434   -6.1875    0.0000 C   0  0  0  0  0  0  0  0  0  0  0  0
    2.1434   -5.3625    0.0000 C   0  0  0  0  0  0  0  0  0  0  0  0
    1.4289   -4.9500    0.0000 N   0  0  0  0  0  0  0  0  0  0  0  0
    0.7145   -5.3625    0.0000 C   0  0  0  0  0  0  0  0  0  0  0  0
    0.3442   -6.0997    0.0000 H   0  0  0  0  0  0  0  0  0  0  0  0
    1.0847   -6.0997    0.0000 H   0  0  0  0  0  0  0  0  0  0  0  0
    0.0000   -4.9500    0.0000 C   0  0  0  0  0  0  0  0  0  0  0  0
   -0.7145   -5.3625    0.0000 C   0  0  0  0  0  0  0  0  0  0  0  0
   -1.4289   -4.9500    0.0000 C   0  0  0  0  0  0  0  0  0  0  0  0
   -1.4289   -4.1250    0.0000 C   0  0  0  0  0  0  0  0  0  0  0  0
   -2.1434   -3.7125    0.0000 Cl  0  0  0  0  0  0  0  0  0  0  0  0
   -0.7145   -3.7125    0.0000 C   0  0  0  0  0  0  0  0  0  0  0  0
   -0.7145   -2.8875    0.0000 H   0  0  0  0  0  0  0  0  0  0  0  0
    0.0000   -4.1250    0.0000 C   0  0  0  0  0  0  0  0  0  0  0  0
    0.7145   -3.7125    0.0000 C   0  0  0  0  0  0  0  0  0  0  0  0
    0.7145   -2.8875    0.0000 C   0  0  0  0  0  0  0  0  0  0  0  0
    0.0000   -2.4750    0.0000 O   0  0  0  0  0  0  0  0  0  0  0  0
    1.4289   -2.4750    0.0000 N   0  0  0  0  0  0  0  0  0  0  0  0
    1.4289   -1.6500    0.0000 C   0  0  0  0  0  0  0  0  0  0  0  0
    0.7145   -1.2375    0.0000 C   0  0  0  0  0  0  0  0  0  0  0  0
    0.0000   -1.6500    0.0000 H   0  0  0  0  0  0  0  0  0  0  0  0
    0.7145   -0.4125    0.0000 N   0  0  0  0  0  0  0  0  0  0  0  0
    1.4289    0.0000    0.0000 C   0  0  0  0  0  0  0  0  0  0  0  0
    1.4289    0.8250    0.0000 H   0  0  0  0  0  0  0  0  0  0  0  0
    2.1434   -0.4125    0.0000 C   0  0  0  0  0  0  0  0  0  0  0  0
    2.8579    0.0000    0.0000 C   0  0  0  0  0  0  0  0  0  0  0  0
    3.5724   -0.4125    0.0000 C   0  0  0  0  0  0  0  0  0  0  0  0
    3.5724   -1.2375    0.0000 C   0  0  0  0  0  0  0  0  0  0  0  0
    2.8579   -1.6500    0.0000 C   0  0  0  0  0  0  0  0  0  0  0  0
    2.8579   -2.4750    0.0000 H   0  0  0  0  0  0  0  0  0  0  0  0
    2.1434   -1.2375    0.0000 C   0  0  0  0  0  0  0  0  0  0  0  0
    4.2868   -1.6500    0.0000 H   0  0  0  0  0  0  0  0  0  0  0  0
    4.2868   -0.0000    0.0000 H   0  0  0  0  0  0  0  0  0  0  0  0
    2.8579    0.8250    0.0000 H   0  0  0  0  0  0  0  0  0  0  0  0
    2.2539   -2.4750    0.0000 H   0  0  0  0  0  0  0  0  0  0  0  0
    1.4289   -3.3000    0.0000 H   0  0  0  0  0  0  0  0  0  0  0  0
    1.4289   -4.1250    0.0000 C   0  0  0  0  0  0  0  0  0  0  0  0
    2.2042   -4.4072    0.0000 H   0  0  0  0  0  0  0  0  0  0  0  0
    2.2042   -3.8428    0.0000 H   0  0  0  0  0  0  0  0  0  0  0  0
   -2.1434   -5.3625    0.0000 H   0  0  0  0  0  0  0  0  0  0  0  0
   -0.7145   -6.1875    0.0000 H   0  0  0  0  0  0  0  0  0  0  0  0
    2.9670   -5.3145    0.0000 H   0  0  0  0  0  0  0  0  0  0  0  0
    2.5968   -4.6732    0.0000 H   0  0  0  0  0  0  0  0  0  0  0  0
  1  2  3  0  0  0  0
  2  3  1  0  0  0  0
  3  4  1  0  0  0  0
  4  5  1  0  0  0  0
  5  6  1  0  0  0  0
  5  7  1  0  0  0  0
  5  8  1  0  0  0  0
  8  9  2  0  0  0  0
  9 10  1  0  0  0  0
 10 11  2  0  0  0  0
 11 12  1  0  0  0  0
 11 13  1  0  0  0  0
 13 14  1  0  0  0  0
 13 15  2  0  0  0  0
  8 15  1  0  0  0  0
 15 16  1  0  0  0  0
 16 17  1  0  0  0  0
 17 18  2  0  0  0  0
 17 19  1  0  0  0  0
 19 20  1  0  0  0  0
 20 21  2  0  0  0  0
 21 22  1  0  0  0  0
 21 23  1  0  0  0  0
 23 24  2  0  0  0  0
 24 25  1  0  0  0  0
 24 26  1  0  0  0  0
 26 27  2  0  0  0  0
 27 28  1  0  0  0  0
 28 29  2  0  0  0  0
 29 30  1  0  0  0  0
 30 31  1  0  0  0  0
 30 32  2  0  0  0  0
 20 32  1  0  0  0  0
 26 32  1  0  0  0  0
 29 33  1  0  0  0  0
 28 34  1  0  0  0  0
 27 35  1  0  0  0  0
 19 36  1  0  0  0  0
 16 37  1  0  0  0  0
 16 38  1  0  0  0  0
  4 38  1  0  0  0  0
 38 39  1  0  0  0  0
 38 40  1  0  0  0  0
 10 41  1  0  0  0  0
  9 42  1  0  0  0  0
  3 43  1  0  0  0  0
  3 44  1  0  0  0  0
M  END
> <Potency>
0.334993360882362

> <pIC50>
6.4749638000101

> <Outcome>
Active

> <is_active>
1

$$$$

  Mrv1921 08232120312D          

 53 56  0  0  0  0            999 V2000
    0.7145    2.0625    0.0000 C   0  0  0  0  0  0  0  0  0  0  0  0
    0.0000    1.6500    0.0000 O   0  0  0  0  0  0  0  0  0  0  0  0
    0.0000    0.8250    0.0000 C   0  0  0  0  0  0  0  0  0  0  0  0
   -0.7145    0.4125    0.0000 C   0  0  0  0  0  0  0  0  0  0  0  0
   -0.7145   -0.4125    0.0000 S   0  0  0  0  0  0  0  0  0  0  0  0
   -1.5395   -0.4125    0.0000 O   0  0  0  0  0  0  0  0  0  0  0  0
    0.1105   -0.4125    0.0000 O   0  0  0  0  0  0  0  0  0  0  0  0
   -0.7145   -1.2375    0.0000 N   0  0  0  0  0  0  0  0  0  0  0  0
   -1.4289   -1.6500    0.0000 C   0  0  0  0  0  0  0  0  0  0  0  0
   -1.8823   -0.9607    0.0000 H   0  0  0  0  0  0  0  0  0  0  0  0
   -2.2525   -1.6020    0.0000 H   0  0  0  0  0  0  0  0  0  0  0  0
   -1.4289   -2.4750    0.0000 C   0  0  0  0  0  0  0  0  0  0  0  0
   -2.1434   -2.8875    0.0000 C   0  0  0  0  0  0  0  0  0  0  0  0
   -2.1434   -3.7125    0.0000 C   0  0  0  0  0  0  0  0  0  0  0  0
   -1.4289   -4.1250    0.0000 C   0  0  0  0  0  0  0  0  0  0  0  0
   -1.4289   -4.9500    0.0000 Cl  0  0  0  0  0  0  0  0  0  0  0  0
   -0.7145   -3.7125    0.0000 C   0  0  0  0  0  0  0  0  0  0  0  0
    0.0000   -4.1250    0.0000 H   0  0  0  0  0  0  0  0  0  0  0  0
   -0.7145   -2.8875    0.0000 C   0  0  0  0  0  0  0  0  0  0  0  0
    0.0000   -2.4750    0.0000 C   0  0  0  0  0  0  0  0  0  0  0  0
    0.7145   -2.8875    0.0000 C   0  0  0  0  0  0  0  0  0  0  0  0
    0.7145   -3.7125    0.0000 O   0  0  0  0  0  0  0  0  0  0  0  0
    1.4289   -2.4750    0.0000 N   0  0  0  0  0  0  0  0  0  0  0  0
    1.4289   -1.6500    0.0000 C   0  0  0  0  0  0  0  0  0  0  0  0
    0.7145   -1.2375    0.0000 C   0  0  0  0  0  0  0  0  0  0  0  0
    0.0000   -0.8250    0.0000 H   0  0  0  0  0  0  0  0  0  0  0  0
    0.7145   -0.4125    0.0000 N   0  0  0  0  0  0  0  0  0  0  0  0
    1.4289    0.0000    0.0000 C   0  0  0  0  0  0  0  0  0  0  0  0
    1.4289    0.8250    0.0000 H   0  0  0  0  0  0  0  0  0  0  0  0
    2.1434   -0.4125    0.0000 C   0  0  0  0  0  0  0  0  0  0  0  0
    2.8579    0.0000    0.0000 C   0  0  0  0  0  0  0  0  0  0  0  0
    3.5724   -0.4125    0.0000 C   0  0  0  0  0  0  0  0  0  0  0  0
    3.5724   -1.2375    0.0000 C   0  0  0  0  0  0  0  0  0  0  0  0
    2.8579   -1.6500    0.0000 C   0  0  0  0  0  0  0  0  0  0  0  0
    2.8579   -2.4750    0.0000 H   0  0  0  0  0  0  0  0  0  0  0  0
    2.1434   -1.2375    0.0000 C   0  0  0  0  0  0  0  0  0  0  0  0
    4.2868   -1.6500    0.0000 H   0  0  0  0  0  0  0  0  0  0  0  0
    4.2868   -0.0000    0.0000 H   0  0  0  0  0  0  0  0  0  0  0  0
    2.8579    0.8250    0.0000 H   0  0  0  0  0  0  0  0  0  0  0  0
    2.1434   -2.8875    0.0000 H   0  0  0  0  0  0  0  0  0  0  0  0
    0.7145   -2.0625    0.0000 H   0  0  0  0  0  0  0  0  0  0  0  0
    0.0000   -1.6500    0.0000 C   0  0  0  0  0  0  0  0  0  0  0  0
   -0.8125   -1.7933    0.0000 H   0  0  0  0  0  0  0  0  0  0  0  0
   -0.5303   -2.2820    0.0000 H   0  0  0  0  0  0  0  0  0  0  0  0
   -2.8579   -4.1250    0.0000 H   0  0  0  0  0  0  0  0  0  0  0  0
   -2.8579   -2.4750    0.0000 H   0  0  0  0  0  0  0  0  0  0  0  0
   -1.1678    1.1018    0.0000 H   0  0  0  0  0  0  0  0  0  0  0  0
   -1.5381    0.4605    0.0000 H   0  0  0  0  0  0  0  0  0  0  0  0
    0.4533    0.1357    0.0000 H   0  0  0  0  0  0  0  0  0  0  0  0
    0.8236    0.7770    0.0000 H   0  0  0  0  0  0  0  0  0  0  0  0
    1.1270    1.3480    0.0000 H   0  0  0  0  0  0  0  0  0  0  0  0
    1.4289    2.4750    0.0000 H   0  0  0  0  0  0  0  0  0  0  0  0
    0.3020    2.7770    0.0000 H   0  0  0  0  0  0  0  0  0  0  0  0
  1  2  1  0  0  0  0
  2  3  1  0  0  0  0
  3  4  1  0  0  0  0
  4  5  1  0  0  0  0
  5  6  2  0  0  0  0
  5  7  2  0  0  0  0
  5  8  1  0  0  0  0
  8  9  1  0  0  0  0
  9 10  1  0  0  0  0
  9 11  1  0  0  0  0
  9 12  1  0  0  0  0
 12 13  2  0  0  0  0
 13 14  1  0  0  0  0
 14 15  2  0  0  0  0
 15 16  1  0  0  0  0
 15 17  1  0  0  0  0
 17 18  1  0  0  0  0
 17 19  2  0  0  0  0
 12 19  1  0  0  0  0
 19 20  1  0  0  0  0
 20 21  1  0  0  0  0
 21 22  2  0  0  0  0
 21 23  1  0  0  0  0
 23 24  1  0  0  0  0
 24 25  2  0  0  0  0
 25 26  1  0  0  0  0
 25 27  1  0  0  0  0
 27 28  2  0  0  0  0
 28 29  1  0  0  0  0
 28 30  1  0  0  0  0
 30 31  2  0  0  0  0
 31 32  1  0  0  0  0
 32 33  2  0  0  0  0
 33 34  1  0  0  0  0
 34 35  1  0  0  0  0
 34 36  2  0  0  0  0
 24 36  1  0  0  0  0
 30 36  1  0  0  0  0
 33 37  1  0  0  0  0
 32 38  1  0  0  0  0
 31 39  1  0  0  0  0
 23 40  1  0  0  0  0
 20 41  1  0  0  0  0
 20 42  1  0  0  0  0
  8 42  1  0  0  0  0
 42 43  1  0  0  0  0
 42 44  1  0  0  0  0
 14 45  1  0  0  0  0
 13 46  1  0  0  0  0
  4 47  1  0  0  0  0
  4 48  1  0  0  0  0
  3 49  1  0  0  0  0
  3 50  1  0  0  0  0
  1 51  1  0  0  0  0
  1 52  1  0  0  0  0
  1 53  1  0  0  0  0
M  END
> <Potency>
0.21264044494308

> <pIC50>
6.672354127653589

> <Outcome>
Active

> <is_active>
1

$$$$

  Mrv1921 08232120312D          

 52 56  0  0  0  0            999 V2000
    0.7145   -2.8875    0.0000 O   0  0  0  0  0  0  0  0  0  0  0  0
    1.4289   -2.4750    0.0000 C   0  0  0  0  0  0  0  0  0  0  0  0
    2.1434   -2.8875    0.0000 N   0  0  0  0  0  0  0  0  0  0  0  0
    2.1434   -3.7125    0.0000 C   0  0  0  0  0  0  0  0  0  0  0  0
    2.8579   -4.1250    0.0000 C   0  0  0  0  0  0  0  0  0  0  0  0
    3.5724   -3.7125    0.0000 H   0  0  0  0  0  0  0  0  0  0  0  0
    2.8579   -4.9500    0.0000 N   0  0  0  0  0  0  0  0  0  0  0  0
    2.1434   -5.3625    0.0000 C   0  0  0  0  0  0  0  0  0  0  0  0
    2.1434   -6.1875    0.0000 H   0  0  0  0  0  0  0  0  0  0  0  0
    1.4289   -4.9500    0.0000 C   0  0  0  0  0  0  0  0  0  0  0  0
    0.7145   -5.3625    0.0000 C   0  0  0  0  0  0  0  0  0  0  0  0
    0.0000   -4.9500    0.0000 C   0  0  0  0  0  0  0  0  0  0  0  0
    0.0000   -4.1250    0.0000 C   0  0  0  0  0  0  0  0  0  0  0  0
    0.7145   -3.7125    0.0000 C   0  0  0  0  0  0  0  0  0  0  0  0
    1.4289   -3.3000    0.0000 H   0  0  0  0  0  0  0  0  0  0  0  0
    1.4289   -4.1250    0.0000 C   0  0  0  0  0  0  0  0  0  0  0  0
   -0.7145   -3.7125    0.0000 H   0  0  0  0  0  0  0  0  0  0  0  0
   -0.7145   -5.3625    0.0000 H   0  0  0  0  0  0  0  0  0  0  0  0
    0.7145   -6.1875    0.0000 H   0  0  0  0  0  0  0  0  0  0  0  0
    2.8579   -2.4750    0.0000 H   0  0  0  0  0  0  0  0  0  0  0  0
    1.4289   -1.6500    0.0000 C   0  0  0  0  0  0  0  0  0  0  0  0
    0.7145   -1.2375    0.0000 C   0  0  0  0  0  0  0  0  0  0  0  0
   -0.1091   -1.2855    0.0000 H   0  0  0  0  0  0  0  0  0  0  0  0
    0.2611   -1.9268    0.0000 H   0  0  0  0  0  0  0  0  0  0  0  0
    0.7145   -0.4125    0.0000 N   0  0  0  0  0  0  0  0  0  0  0  0
    0.0000    0.0000    0.0000 S   0  0  0  0  0  0  0  0  0  0  0  0
    0.4125    0.7145    0.0000 O   0  0  0  0  0  0  0  0  0  0  0  0
   -0.4125   -0.7145    0.0000 O   0  0  0  0  0  0  0  0  0  0  0  0
   -0.7145    0.4125    0.0000 C   0  0  0  0  0  0  0  0  0  0  0  0
   -1.5114    0.1990    0.0000 C   0  0  0  0  0  0  0  0  0  0  0  0
   -2.2258   -0.2135    0.0000 H   0  0  0  0  0  0  0  0  0  0  0  0
   -1.5114   -0.6260    0.0000 H   0  0  0  0  0  0  0  0  0  0  0  0
   -1.7249    0.9959    0.0000 N   0  0  0  0  0  0  0  0  0  0  0  0
   -2.4394    1.4084    0.0000 H   0  0  0  0  0  0  0  0  0  0  0  0
   -0.9280    1.2094    0.0000 C   0  0  0  0  0  0  0  0  0  0  0  0
   -0.5712    1.9532    0.0000 H   0  0  0  0  0  0  0  0  0  0  0  0
   -1.2354    1.9750    0.0000 H   0  0  0  0  0  0  0  0  0  0  0  0
   -0.0600    0.9147    0.0000 H   0  0  0  0  0  0  0  0  0  0  0  0
    1.4289    0.0000    0.0000 C   0  0  0  0  0  0  0  0  0  0  0  0
    1.7992    0.7372    0.0000 H   0  0  0  0  0  0  0  0  0  0  0  0
    1.0587    0.7372    0.0000 H   0  0  0  0  0  0  0  0  0  0  0  0
    2.1434   -0.4125    0.0000 C   0  0  0  0  0  0  0  0  0  0  0  0
    2.8579    0.0000    0.0000 C   0  0  0  0  0  0  0  0  0  0  0  0
    3.5724   -0.4125    0.0000 C   0  0  0  0  0  0  0  0  0  0  0  0
    3.5724   -1.2375    0.0000 C   0  0  0  0  0  0  0  0  0  0  0  0
    4.2868   -1.6500    0.0000 Cl  0  0  0  0  0  0  0  0  0  0  0  0
    2.8579   -1.6500    0.0000 C   0  0  0  0  0  0  0  0  0  0  0  0
    2.8579   -0.8250    0.0000 H   0  0  0  0  0  0  0  0  0  0  0  0
    2.1434   -1.2375    0.0000 C   0  0  0  0  0  0  0  0  0  0  0  0
    4.2868   -0.0000    0.0000 H   0  0  0  0  0  0  0  0  0  0  0  0
    2.8579    0.8250    0.0000 H   0  0  0  0  0  0  0  0  0  0  0  0
    2.1434   -2.0625    0.0000 H   0  0  0  0  0  0  0  0  0  0  0  0
  1  2  2  0  0  0  0
  2  3  1  0  0  0  0
  3  4  1  0  0  0  0
  4  5  2  0  0  0  0
  5  6  1  0  0  0  0
  5  7  1  0  0  0  0
  7  8  2  0  0  0  0
  8  9  1  0  0  0  0
  8 10  1  0  0  0  0
 10 11  2  0  0  0  0
 11 12  1  0  0  0  0
 12 13  2  0  0  0  0
 13 14  1  0  0  0  0
 14 15  1  0  0  0  0
 14 16  2  0  0  0  0
  4 16  1  0  0  0  0
 10 16  1  0  0  0  0
 13 17  1  0  0  0  0
 12 18  1  0  0  0  0
 11 19  1  0  0  0  0
  3 20  1  0  0  0  0
  2 21  1  0  0  0  0
 21 22  1  0  0  0  0
 22 23  1  0  0  0  0
 22 24  1  0  0  0  0
 22 25  1  0  0  0  0
 25 26  1  0  0  0  0
 26 27  2  0  0  0  0
 26 28  2  0  0  0  0
 26 29  1  0  0  0  0
 29 30  1  0  0  0  0
 30 31  1  0  0  0  0
 30 32  1  0  0  0  0
 30 33  1  0  0  0  0
 33 34  1  0  0  0  0
 33 35  1  0  0  0  0
 29 35  1  0  0  0  0
 35 36  1  0  0  0  0
 35 37  1  0  0  0  0
 29 38  1  0  0  0  0
 25 39  1  0  0  0  0
 39 40  1  0  0  0  0
 39 41  1  0  0  0  0
 39 42  1  0  0  0  0
 42 43  2  0  0  0  0
 43 44  1  0  0  0  0
 44 45  2  0  0  0  0
 45 46  1  0  0  0  0
 45 47  1  0  0  0  0
 47 48  1  0  0  0  0
 47 49  2  0  0  0  0
 21 49  1  0  0  0  0
 42 49  1  0  0  0  0
 44 50  1  0  0  0  0
 43 51  1  0  0  0  0
 21 52  1  0  0  0  0
M  END
> <Potency>
0.273807340288431

> <pIC50>
6.562554913382341

> <Outcome>
Active

> <is_active>
1

$$$$

  Mrv1921 08232120312D          

 50 53  0  0  0  0            999 V2000
   -0.7145    1.2375    0.0000 C   0  0  0  0  0  0  0  0  0  0  0  0
   -1.4289    0.8250    0.0000 N   0  0  0  0  0  0  0  0  0  0  0  0
   -1.4289   -0.0000    0.0000 C   0  0  0  0  0  0  0  0  0  0  0  0
   -2.1434   -0.4125    0.0000 O   0  0  0  0  0  0  0  0  0  0  0  0
   -0.7145   -0.4125    0.0000 C   0  0  0  0  0  0  0  0  0  0  0  0
   -0.7145   -1.2375    0.0000 N   0  0  0  0  0  0  0  0  0  0  0  0
   -1.4289   -1.6500    0.0000 C   0  0  0  0  0  0  0  0  0  0  0  0
   -1.8823   -0.9607    0.0000 H   0  0  0  0  0  0  0  0  0  0  0  0
   -2.2525   -1.6020    0.0000 H   0  0  0  0  0  0  0  0  0  0  0  0
   -1.4289   -2.4750    0.0000 C   0  0  0  0  0  0  0  0  0  0  0  0
   -2.1434   -2.8875    0.0000 C   0  0  0  0  0  0  0  0  0  0  0  0
   -2.1434   -3.7125    0.0000 C   0  0  0  0  0  0  0  0  0  0  0  0
   -1.4289   -4.1250    0.0000 C   0  0  0  0  0  0  0  0  0  0  0  0
   -1.4289   -4.9500    0.0000 Cl  0  0  0  0  0  0  0  0  0  0  0  0
   -0.7145   -3.7125    0.0000 C   0  0  0  0  0  0  0  0  0  0  0  0
    0.0000   -4.1250    0.0000 H   0  0  0  0  0  0  0  0  0  0  0  0
   -0.7145   -2.8875    0.0000 C   0  0  0  0  0  0  0  0  0  0  0  0
    0.0000   -2.4750    0.0000 C   0  0  0  0  0  0  0  0  0  0  0  0
    0.7145   -2.8875    0.0000 C   0  0  0  0  0  0  0  0  0  0  0  0
    0.7145   -3.7125    0.0000 O   0  0  0  0  0  0  0  0  0  0  0  0
    1.4289   -2.4750    0.0000 N   0  0  0  0  0  0  0  0  0  0  0  0
    1.4289   -1.6500    0.0000 C   0  0  0  0  0  0  0  0  0  0  0  0
    0.7145   -1.2375    0.0000 C   0  0  0  0  0  0  0  0  0  0  0  0
    0.0000   -0.8250    0.0000 H   0  0  0  0  0  0  0  0  0  0  0  0
    0.7145   -0.4125    0.0000 N   0  0  0  0  0  0  0  0  0  0  0  0
    1.4289    0.0000    0.0000 C   0  0  0  0  0  0  0  0  0  0  0  0
    1.4289    0.8250    0.0000 H   0  0  0  0  0  0  0  0  0  0  0  0
    2.1434   -0.4125    0.0000 C   0  0  0  0  0  0  0  0  0  0  0  0
    2.8579    0.0000    0.0000 C   0  0  0  0  0  0  0  0  0  0  0  0
    3.5724   -0.4125    0.0000 C   0  0  0  0  0  0  0  0  0  0  0  0
    3.5724   -1.2375    0.0000 C   0  0  0  0  0  0  0  0  0  0  0  0
    2.8579   -1.6500    0.0000 C   0  0  0  0  0  0  0  0  0  0  0  0
    2.8579   -2.4750    0.0000 H   0  0  0  0  0  0  0  0  0  0  0  0
    2.1434   -1.2375    0.0000 C   0  0  0  0  0  0  0  0  0  0  0  0
    4.2868   -1.6500    0.0000 H   0  0  0  0  0  0  0  0  0  0  0  0
    4.2868   -0.0000    0.0000 H   0  0  0  0  0  0  0  0  0  0  0  0
    2.8579    0.8250    0.0000 H   0  0  0  0  0  0  0  0  0  0  0  0
    2.1434   -2.8875    0.0000 H   0  0  0  0  0  0  0  0  0  0  0  0
    0.7145   -2.0625    0.0000 H   0  0  0  0  0  0  0  0  0  0  0  0
    0.0000   -1.6500    0.0000 C   0  0  0  0  0  0  0  0  0  0  0  0
   -0.8125   -1.7933    0.0000 H   0  0  0  0  0  0  0  0  0  0  0  0
   -0.5303   -2.2820    0.0000 H   0  0  0  0  0  0  0  0  0  0  0  0
   -2.8579   -4.1250    0.0000 H   0  0  0  0  0  0  0  0  0  0  0  0
   -2.8579   -2.4750    0.0000 H   0  0  0  0  0  0  0  0  0  0  0  0
    0.1091   -0.3645    0.0000 H   0  0  0  0  0  0  0  0  0  0  0  0
   -0.2611    0.2768    0.0000 H   0  0  0  0  0  0  0  0  0  0  0  0
   -2.1434    1.2375    0.0000 H   0  0  0  0  0  0  0  0  0  0  0  0
   -0.3020    0.5230    0.0000 H   0  0  0  0  0  0  0  0  0  0  0  0
    0.0000    1.6500    0.0000 H   0  0  0  0  0  0  0  0  0  0  0  0
   -1.1270    1.9520    0.0000 H   0  0  0  0  0  0  0  0  0  0  0  0
  1  2  1  0  0  0  0
  2  3  1  0  0  0  0
  3  4  2  0  0  0  0
  3  5  1  0  0  0  0
  5  6  1  0  0  0  0
  6  7  1  0  0  0  0
  7  8  1  0  0  0  0
  7  9  1  0  0  0  0
  7 10  1  0  0  0  0
 10 11  2  0  0  0  0
 11 12  1  0  0  0  0
 12 13  2  0  0  0  0
 13 14  1  0  0  0  0
 13 15  1  0  0  0  0
 15 16  1  0  0  0  0
 15 17  2  0  0  0  0
 10 17  1  0  0  0  0
 17 18  1  0  0  0  0
 18 19  1  0  0  0  0
 19 20  2  0  0  0  0
 19 21  1  0  0  0  0
 21 22  1  0  0  0  0
 22 23  2  0  0  0  0
 23 24  1  0  0  0  0
 23 25  1  0  0  0  0
 25 26  2  0  0  0  0
 26 27  1  0  0  0  0
 26 28  1  0  0  0  0
 28 29  2  0  0  0  0
 29 30  1  0  0  0  0
 30 31  2  0  0  0  0
 31 32  1  0  0  0  0
 32 33  1  0  0  0  0
 32 34  2  0  0  0  0
 22 34  1  0  0  0  0
 28 34  1  0  0  0  0
 31 35  1  0  0  0  0
 30 36  1  0  0  0  0
 29 37  1  0  0  0  0
 21 38  1  0  0  0  0
 18 39  1  0  0  0  0
 18 40  1  0  0  0  0
  6 40  1  0  0  0  0
 40 41  1  0  0  0  0
 40 42  1  0  0  0  0
 12 43  1  0  0  0  0
 11 44  1  0  0  0  0
  5 45  1  0  0  0  0
  5 46  1  0  0  0  0
  2 47  1  0  0  0  0
  1 48  1  0  0  0  0
  1 49  1  0  0  0  0
  1 50  1  0  0  0  0
M  END
> <Potency>
0.069299488990796

> <pIC50>
7.159269967831134

> <Outcome>
Active

> <is_active>
1

$$$$

  Mrv1921 08232120312D          

 46 49  0  0  0  0            999 V2000
    0.7145   -2.8875    0.0000 O   0  0  0  0  0  0  0  0  0  0  0  0
    1.4289   -2.4750    0.0000 C   0  0  0  0  0  0  0  0  0  0  0  0
    2.1434   -2.8875    0.0000 N   0  0  0  0  0  0  0  0  0  0  0  0
    2.1434   -3.7125    0.0000 C   0  0  0  0  0  0  0  0  0  0  0  0
    2.8579   -4.1250    0.0000 C   0  0  0  0  0  0  0  0  0  0  0  0
    3.5724   -3.7125    0.0000 H   0  0  0  0  0  0  0  0  0  0  0  0
    2.8579   -4.9500    0.0000 N   0  0  0  0  0  0  0  0  0  0  0  0
    2.1434   -5.3625    0.0000 C   0  0  0  0  0  0  0  0  0  0  0  0
    2.1434   -6.1875    0.0000 H   0  0  0  0  0  0  0  0  0  0  0  0
    1.4289   -4.9500    0.0000 C   0  0  0  0  0  0  0  0  0  0  0  0
    0.7145   -5.3625    0.0000 C   0  0  0  0  0  0  0  0  0  0  0  0
    0.0000   -4.9500    0.0000 C   0  0  0  0  0  0  0  0  0  0  0  0
    0.0000   -4.1250    0.0000 C   0  0  0  0  0  0  0  0  0  0  0  0
    0.7145   -3.7125    0.0000 C   0  0  0  0  0  0  0  0  0  0  0  0
    1.4289   -3.3000    0.0000 H   0  0  0  0  0  0  0  0  0  0  0  0
    1.4289   -4.1250    0.0000 C   0  0  0  0  0  0  0  0  0  0  0  0
   -0.7145   -3.7125    0.0000 H   0  0  0  0  0  0  0  0  0  0  0  0
   -0.7145   -5.3625    0.0000 H   0  0  0  0  0  0  0  0  0  0  0  0
    0.7145   -6.1875    0.0000 H   0  0  0  0  0  0  0  0  0  0  0  0
    2.8579   -2.4750    0.0000 H   0  0  0  0  0  0  0  0  0  0  0  0
    1.4289   -1.6500    0.0000 C   0  0  0  0  0  0  0  0  0  0  0  0
    0.7145   -1.2375    0.0000 C   0  0  0  0  0  0  0  0  0  0  0  0
   -0.1091   -1.2855    0.0000 H   0  0  0  0  0  0  0  0  0  0  0  0
    0.2611   -1.9268    0.0000 H   0  0  0  0  0  0  0  0  0  0  0  0
    0.7145   -0.4125    0.0000 N   0  0  0  0  0  0  0  0  0  0  0  0
    0.0000    0.0000    0.0000 C   0  0  0  0  0  0  0  0  0  0  0  0
   -0.7145   -0.4125    0.0000 C   0  0  0  0  0  0  0  0  0  0  0  0
   -1.4289   -0.8250    0.0000 F   0  0  0  0  0  0  0  0  0  0  0  0
   -1.1270    0.3020    0.0000 F   0  0  0  0  0  0  0  0  0  0  0  0
   -0.3020   -1.1270    0.0000 F   0  0  0  0  0  0  0  0  0  0  0  0
    0.3703    0.7372    0.0000 H   0  0  0  0  0  0  0  0  0  0  0  0
   -0.3703    0.7372    0.0000 H   0  0  0  0  0  0  0  0  0  0  0  0
    1.4289    0.0000    0.0000 C   0  0  0  0  0  0  0  0  0  0  0  0
    1.7992    0.7372    0.0000 H   0  0  0  0  0  0  0  0  0  0  0  0
    1.0587    0.7372    0.0000 H   0  0  0  0  0  0  0  0  0  0  0  0
    2.1434   -0.4125    0.0000 C   0  0  0  0  0  0  0  0  0  0  0  0
    2.8579    0.0000    0.0000 C   0  0  0  0  0  0  0  0  0  0  0  0
    3.5724   -0.4125    0.0000 C   0  0  0  0  0  0  0  0  0  0  0  0
    3.5724   -1.2375    0.0000 C   0  0  0  0  0  0  0  0  0  0  0  0
    4.2868   -1.6500    0.0000 Cl  0  0  0  0  0  0  0  0  0  0  0  0
    2.8579   -1.6500    0.0000 C   0  0  0  0  0  0  0  0  0  0  0  0
    2.8579   -0.8250    0.0000 H   0  0  0  0  0  0  0  0  0  0  0  0
    2.1434   -1.2375    0.0000 C   0  0  0  0  0  0  0  0  0  0  0  0
    4.2868   -0.0000    0.0000 H   0  0  0  0  0  0  0  0  0  0  0  0
    2.8579    0.8250    0.0000 H   0  0  0  0  0  0  0  0  0  0  0  0
    2.1434   -2.0625    0.0000 H   0  0  0  0  0  0  0  0  0  0  0  0
  1  2  2  0  0  0  0
  2  3  1  0  0  0  0
  3  4  1  0  0  0  0
  4  5  2  0  0  0  0
  5  6  1  0  0  0  0
  5  7  1  0  0  0  0
  7  8  2  0  0  0  0
  8  9  1  0  0  0  0
  8 10  1  0  0  0  0
 10 11  2  0  0  0  0
 11 12  1  0  0  0  0
 12 13  2  0  0  0  0
 13 14  1  0  0  0  0
 14 15  1  0  0  0  0
 14 16  2  0  0  0  0
  4 16  1  0  0  0  0
 10 16  1  0  0  0  0
 13 17  1  0  0  0  0
 12 18  1  0  0  0  0
 11 19  1  0  0  0  0
  3 20  1  0  0  0  0
  2 21  1  0  0  0  0
 21 22  1  0  0  0  0
 22 23  1  0  0  0  0
 22 24  1  0  0  0  0
 22 25  1  0  0  0  0
 25 26  1  0  0  0  0
 26 27  1  0  0  0  0
 27 28  1  0  0  0  0
 27 29  1  0  0  0  0
 27 30  1  0  0  0  0
 26 31  1  0  0  0  0
 26 32  1  0  0  0  0
 25 33  1  0  0  0  0
 33 34  1  0  0  0  0
 33 35  1  0  0  0  0
 33 36  1  0  0  0  0
 36 37  2  0  0  0  0
 37 38  1  0  0  0  0
 38 39  2  0  0  0  0
 39 40  1  0  0  0  0
 39 41  1  0  0  0  0
 41 42  1  0  0  0  0
 41 43  2  0  0  0  0
 21 43  1  0  0  0  0
 36 43  1  0  0  0  0
 38 44  1  0  0  0  0
 37 45  1  0  0  0  0
 21 46  1  0  0  0  0
M  END
> <Potency>
3.40819546244733

> <pIC50>
5.467475506091943

> <Outcome>
Active

> <is_active>
1

$$$$

  Mrv1921 08232120312D          

 48 52  0  0  0  0            999 V2000
    0.7145   -2.8875    0.0000 O   0  0  0  0  0  0  0  0  0  0  0  0
    1.4289   -2.4750    0.0000 C   0  0  0  0  0  0  0  0  0  0  0  0
    2.1434   -2.8875    0.0000 N   0  0  0  0  0  0  0  0  0  0  0  0
    2.1434   -3.7125    0.0000 C   0  0  0  0  0  0  0  0  0  0  0  0
    2.8579   -4.1250    0.0000 C   0  0  0  0  0  0  0  0  0  0  0  0
    3.5724   -3.7125    0.0000 H   0  0  0  0  0  0  0  0  0  0  0  0
    2.8579   -4.9500    0.0000 N   0  0  0  0  0  0  0  0  0  0  0  0
    2.1434   -5.3625    0.0000 C   0  0  0  0  0  0  0  0  0  0  0  0
    2.1434   -6.1875    0.0000 H   0  0  0  0  0  0  0  0  0  0  0  0
    1.4289   -4.9500    0.0000 C   0  0  0  0  0  0  0  0  0  0  0  0
    0.7145   -5.3625    0.0000 C   0  0  0  0  0  0  0  0  0  0  0  0
    0.0000   -4.9500    0.0000 C   0  0  0  0  0  0  0  0  0  0  0  0
    0.0000   -4.1250    0.0000 C   0  0  0  0  0  0  0  0  0  0  0  0
    0.7145   -3.7125    0.0000 C   0  0  0  0  0  0  0  0  0  0  0  0
    1.4289   -3.3000    0.0000 H   0  0  0  0  0  0  0  0  0  0  0  0
    1.4289   -4.1250    0.0000 C   0  0  0  0  0  0  0  0  0  0  0  0
   -0.7145   -3.7125    0.0000 H   0  0  0  0  0  0  0  0  0  0  0  0
   -0.7145   -5.3625    0.0000 H   0  0  0  0  0  0  0  0  0  0  0  0
    0.7145   -6.1875    0.0000 H   0  0  0  0  0  0  0  0  0  0  0  0
    2.8579   -2.4750    0.0000 H   0  0  0  0  0  0  0  0  0  0  0  0
    1.4289   -1.6500    0.0000 C   0  0  0  0  0  0  0  0  0  0  0  0
    0.7145   -1.2375    0.0000 C   0  0  0  0  0  0  0  0  0  0  0  0
   -0.1091   -1.2855    0.0000 H   0  0  0  0  0  0  0  0  0  0  0  0
    0.2611   -1.9268    0.0000 H   0  0  0  0  0  0  0  0  0  0  0  0
    0.7145   -0.4125    0.0000 N   0  0  0  0  0  0  0  0  0  0  0  0
    0.0000    0.0000    0.0000 C   0  0  0  0  0  0  0  0  0  0  0  0
   -0.7145   -0.4125    0.0000 O   0  0  0  0  0  0  0  0  0  0  0  0
    0.0000    0.8250    0.0000 C   0  0  0  0  0  0  0  0  0  0  0  0
   -0.6674    1.3099    0.0000 N   0  0  0  0  0  0  0  0  0  0  0  0
   -0.4125    2.0945    0.0000 C   0  0  0  0  0  0  0  0  0  0  0  0
   -0.8974    2.7620    0.0000 H   0  0  0  0  0  0  0  0  0  0  0  0
    0.4125    2.0945    0.0000 C   0  0  0  0  0  0  0  0  0  0  0  0
    0.8974    2.7620    0.0000 H   0  0  0  0  0  0  0  0  0  0  0  0
    0.6674    1.3099    0.0000 O   0  0  0  0  0  0  0  0  0  0  0  0
    1.4289    0.0000    0.0000 C   0  0  0  0  0  0  0  0  0  0  0  0
    1.7992    0.7372    0.0000 H   0  0  0  0  0  0  0  0  0  0  0  0
    1.0587    0.7372    0.0000 H   0  0  0  0  0  0  0  0  0  0  0  0
    2.1434   -0.4125    0.0000 C   0  0  0  0  0  0  0  0  0  0  0  0
    2.8579    0.0000    0.0000 C   0  0  0  0  0  0  0  0  0  0  0  0
    3.5724   -0.4125    0.0000 C   0  0  0  0  0  0  0  0  0  0  0  0
    3.5724   -1.2375    0.0000 C   0  0  0  0  0  0  0  0  0  0  0  0
    4.2868   -1.6500    0.0000 Cl  0  0  0  0  0  0  0  0  0  0  0  0
    2.8579   -1.6500    0.0000 C   0  0  0  0  0  0  0  0  0  0  0  0
    2.8579   -0.8250    0.0000 H   0  0  0  0  0  0  0  0  0  0  0  0
    2.1434   -1.2375    0.0000 C   0  0  0  0  0  0  0  0  0  0  0  0
    4.2868   -0.0000    0.0000 H   0  0  0  0  0  0  0  0  0  0  0  0
    2.8579    0.8250    0.0000 H   0  0  0  0  0  0  0  0  0  0  0  0
    2.1434   -2.0625    0.0000 H   0  0  0  0  0  0  0  0  0  0  0  0
  1  2  2  0  0  0  0
  2  3  1  0  0  0  0
  3  4  1  0  0  0  0
  4  5  2  0  0  0  0
  5  6  1  0  0  0  0
  5  7  1  0  0  0  0
  7  8  2  0  0  0  0
  8  9  1  0  0  0  0
  8 10  1  0  0  0  0
 10 11  2  0  0  0  0
 11 12  1  0  0  0  0
 12 13  2  0  0  0  0
 13 14  1  0  0  0  0
 14 15  1  0  0  0  0
 14 16  2  0  0  0  0
  4 16  1  0  0  0  0
 10 16  1  0  0  0  0
 13 17  1  0  0  0  0
 12 18  1  0  0  0  0
 11 19  1  0  0  0  0
  3 20  1  0  0  0  0
  2 21  1  0  0  0  0
 21 22  1  0  0  0  0
 22 23  1  0  0  0  0
 22 24  1  0  0  0  0
 22 25  1  0  0  0  0
 25 26  1  0  0  0  0
 26 27  2  0  0  0  0
 26 28  1  0  0  0  0
 28 29  2  0  0  0  0
 29 30  1  0  0  0  0
 30 31  1  0  0  0  0
 30 32  2  0  0  0  0
 32 33  1  0  0  0  0
 32 34  1  0  0  0  0
 28 34  1  0  0  0  0
 25 35  1  0  0  0  0
 35 36  1  0  0  0  0
 35 37  1  0  0  0  0
 35 38  1  0  0  0  0
 38 39  2  0  0  0  0
 39 40  1  0  0  0  0
 40 41  2  0  0  0  0
 41 42  1  0  0  0  0
 41 43  1  0  0  0  0
 43 44  1  0  0  0  0
 43 45  2  0  0  0  0
 21 45  1  0  0  0  0
 38 45  1  0  0  0  0
 40 46  1  0  0  0  0
 39 47  1  0  0  0  0
 21 48  1  0  0  0  0
M  END
> <Potency>
0.918197839465401

> <pIC50>
6.037063733470845

> <Outcome>
Active

> <is_active>
1

$$$$

  Mrv1921 08232120312D          

 44 47  0  0  0  0            999 V2000
    2.1434   -2.8875    0.0000 O   0  0  0  0  0  0  0  0  0  0  0  0
    1.4289   -2.4750    0.0000 C   0  0  0  0  0  0  0  0  0  0  0  0
    0.7145   -2.8875    0.0000 N   0  0  0  0  0  0  0  0  0  0  0  0
    0.7145   -3.7125    0.0000 C   0  0  0  0  0  0  0  0  0  0  0  0
    0.0000   -4.1250    0.0000 C   0  0  0  0  0  0  0  0  0  0  0  0
   -0.7145   -3.7125    0.0000 H   0  0  0  0  0  0  0  0  0  0  0  0
    0.0000   -4.9500    0.0000 N   0  0  0  0  0  0  0  0  0  0  0  0
    0.7145   -5.3625    0.0000 C   0  0  0  0  0  0  0  0  0  0  0  0
    0.7145   -6.1875    0.0000 H   0  0  0  0  0  0  0  0  0  0  0  0
    1.4289   -4.9500    0.0000 C   0  0  0  0  0  0  0  0  0  0  0  0
    1.4289   -4.1250    0.0000 C   0  0  0  0  0  0  0  0  0  0  0  0
    2.1434   -3.7125    0.0000 C   0  0  0  0  0  0  0  0  0  0  0  0
    2.8579   -4.1250    0.0000 C   0  0  0  0  0  0  0  0  0  0  0  0
    2.8579   -4.9500    0.0000 C   0  0  0  0  0  0  0  0  0  0  0  0
    2.1434   -5.3625    0.0000 C   0  0  0  0  0  0  0  0  0  0  0  0
    1.5334   -5.9180    0.0000 H   0  0  0  0  0  0  0  0  0  0  0  0
    2.0522   -6.1824    0.0000 H   0  0  0  0  0  0  0  0  0  0  0  0
    3.0286   -5.7571    0.0000 H   0  0  0  0  0  0  0  0  0  0  0  0
    3.5172   -5.4459    0.0000 H   0  0  0  0  0  0  0  0  0  0  0  0
    3.6331   -4.4072    0.0000 H   0  0  0  0  0  0  0  0  0  0  0  0
    3.6331   -3.8428    0.0000 H   0  0  0  0  0  0  0  0  0  0  0  0
    2.8579   -3.3000    0.0000 H   0  0  0  0  0  0  0  0  0  0  0  0
    1.4289   -3.3000    0.0000 H   0  0  0  0  0  0  0  0  0  0  0  0
    0.0000   -2.4750    0.0000 H   0  0  0  0  0  0  0  0  0  0  0  0
    1.4289   -1.6500    0.0000 C   0  0  0  0  0  0  0  0  0  0  0  0
    0.7145   -1.2375    0.0000 C   0  0  0  0  0  0  0  0  0  0  0  0
   -0.1091   -1.2855    0.0000 H   0  0  0  0  0  0  0  0  0  0  0  0
    0.2611   -1.9268    0.0000 H   0  0  0  0  0  0  0  0  0  0  0  0
    0.7145   -0.4125    0.0000 C   0  0  0  0  0  0  0  0  0  0  0  0
    0.2611    0.2768    0.0000 H   0  0  0  0  0  0  0  0  0  0  0  0
   -0.1091   -0.3645    0.0000 H   0  0  0  0  0  0  0  0  0  0  0  0
    1.4289    0.0000    0.0000 N   0  0  0  0  0  0  0  0  0  0  0  0
    1.4289    0.8250    0.0000 H   0  0  0  0  0  0  0  0  0  0  0  0
    2.1434   -0.4125    0.0000 C   0  0  0  0  0  0  0  0  0  0  0  0
    2.8579    0.0000    0.0000 C   0  0  0  0  0  0  0  0  0  0  0  0
    3.5724   -0.4125    0.0000 C   0  0  0  0  0  0  0  0  0  0  0  0
    4.2868   -0.0000    0.0000 Cl  0  0  0  0  0  0  0  0  0  0  0  0
    3.5724   -1.2375    0.0000 C   0  0  0  0  0  0  0  0  0  0  0  0
    4.2868   -1.6500    0.0000 Cl  0  0  0  0  0  0  0  0  0  0  0  0
    2.8579   -1.6500    0.0000 C   0  0  0  0  0  0  0  0  0  0  0  0
    3.2704   -2.3645    0.0000 H   0  0  0  0  0  0  0  0  0  0  0  0
    2.1434   -1.2375    0.0000 C   0  0  0  0  0  0  0  0  0  0  0  0
    2.8579    0.8250    0.0000 H   0  0  0  0  0  0  0  0  0  0  0  0
    2.1434   -2.0625    0.0000 H   0  0  0  0  0  0  0  0  0  0  0  0
  1  2  2  0  0  0  0
  2  3  1  0  0  0  0
  3  4  1  0  0  0  0
  4  5  2  0  0  0  0
  5  6  1  0  0  0  0
  5  7  1  0  0  0  0
  7  8  2  0  0  0  0
  8  9  1  0  0  0  0
  8 10  1  0  0  0  0
 10 11  2  0  0  0  0
  4 11  1  0  0  0  0
 11 12  1  0  0  0  0
 12 13  1  0  0  0  0
 13 14  1  0  0  0  0
 14 15  1  0  0  0  0
 10 15  1  0  0  0  0
 15 16  1  0  0  0  0
 15 17  1  0  0  0  0
 14 18  1  0  0  0  0
 14 19  1  0  0  0  0
 13 20  1  0  0  0  0
 13 21  1  0  0  0  0
 12 22  1  0  0  0  0
 12 23  1  0  0  0  0
  3 24  1  0  0  0  0
  2 25  1  0  0  0  0
 25 26  1  0  0  0  0
 26 27  1  0  0  0  0
 26 28  1  0  0  0  0
 26 29  1  0  0  0  0
 29 30  1  0  0  0  0
 29 31  1  0  0  0  0
 29 32  1  0  0  0  0
 32 33  1  0  0  0  0
 32 34  1  0  0  0  0
 34 35  2  0  0  0  0
 35 36  1  0  0  0  0
 36 37  1  0  0  0  0
 36 38  2  0  0  0  0
 38 39  1  0  0  0  0
 38 40  1  0  0  0  0
 40 41  1  0  0  0  0
 40 42  2  0  0  0  0
 25 42  1  0  0  0  0
 34 42  1  0  0  0  0
 35 43  1  0  0  0  0
 25 44  1  0  0  0  0
M  END
> <Potency>
0.239324346128268

> <pIC50>
6.621013118973957

> <Outcome>
Active

> <is_active>
1

$$$$

  Mrv1921 08232120312D          

 59 62  0  0  0  0            999 V2000
   11.4315   -0.8250    0.0000 O   0  0  0  0  0  0  0  0  0  0  0  0
   11.4315    0.0000    0.0000 C   0  0  0  0  0  0  0  0  0  0  0  0
   10.7171    0.4125    0.0000 C   0  0  0  0  0  0  0  0  0  0  0  0
   10.0026    0.0000    0.0000 O   0  0  0  0  0  0  0  0  0  0  0  0
    9.2881    0.4125    0.0000 C   0  0  0  0  0  0  0  0  0  0  0  0
    8.5737    0.0000    0.0000 C   0  0  0  0  0  0  0  0  0  0  0  0
    8.5737   -0.8250    0.0000 O   0  0  0  0  0  0  0  0  0  0  0  0
    7.8592    0.4125    0.0000 N   0  0  0  0  0  0  0  0  0  0  0  0
    7.1055    0.0769    0.0000 C   0  0  0  0  0  0  0  0  0  0  0  0
    6.5752   -0.5550    0.0000 H   0  0  0  0  0  0  0  0  0  0  0  0
    7.3329   -0.7161    0.0000 H   0  0  0  0  0  0  0  0  0  0  0  0
    6.5535    0.6900    0.0000 C   0  0  0  0  0  0  0  0  0  0  0  0
    5.7885    0.9991    0.0000 H   0  0  0  0  0  0  0  0  0  0  0  0
    5.8695    0.2287    0.0000 H   0  0  0  0  0  0  0  0  0  0  0  0
    6.9660    1.4045    0.0000 C   0  0  0  0  0  0  0  0  0  0  0  0
    7.0235    2.2275    0.0000 H   0  0  0  0  0  0  0  0  0  0  0  0
    6.3159    1.9124    0.0000 H   0  0  0  0  0  0  0  0  0  0  0  0
    7.7729    1.2330    0.0000 C   0  0  0  0  0  0  0  0  0  0  0  0
    8.5734    1.4326    0.0000 H   0  0  0  0  0  0  0  0  0  0  0  0
    8.0551    2.0082    0.0000 H   0  0  0  0  0  0  0  0  0  0  0  0
    9.6584    1.1497    0.0000 H   0  0  0  0  0  0  0  0  0  0  0  0
    8.9179    1.1497    0.0000 H   0  0  0  0  0  0  0  0  0  0  0  0
   11.0873    1.1497    0.0000 H   0  0  0  0  0  0  0  0  0  0  0  0
   10.3468    1.1497    0.0000 H   0  0  0  0  0  0  0  0  0  0  0  0
   12.1460    0.4125    0.0000 N   0  0  0  0  0  0  0  0  0  0  0  0
   12.8605    0.0000    0.0000 C   0  0  0  0  0  0  0  0  0  0  0  0
   13.5749    0.4125    0.0000 C   0  0  0  0  0  0  0  0  0  0  0  0
   13.5749    1.2375    0.0000 O   0  0  0  0  0  0  0  0  0  0  0  0
   14.2894    0.0000    0.0000 N   0  0  0  0  0  0  0  0  0  0  0  0
   15.0039    0.4125    0.0000 C   0  0  0  0  0  0  0  0  0  0  0  0
   15.0039    1.2375    0.0000 C   0  0  0  0  0  0  0  0  0  0  0  0
   14.2894    1.6500    0.0000 H   0  0  0  0  0  0  0  0  0  0  0  0
   15.7184    1.6500    0.0000 N   0  0  0  0  0  0  0  0  0  0  0  0
   16.4328    1.2375    0.0000 C   0  0  0  0  0  0  0  0  0  0  0  0
   17.1473    1.6500    0.0000 H   0  0  0  0  0  0  0  0  0  0  0  0
   16.4328    0.4125    0.0000 C   0  0  0  0  0  0  0  0  0  0  0  0
   17.1473    0.0000    0.0000 C   0  0  0  0  0  0  0  0  0  0  0  0
   17.1473   -0.8250    0.0000 C   0  0  0  0  0  0  0  0  0  0  0  0
   16.4328   -1.2375    0.0000 C   0  0  0  0  0  0  0  0  0  0  0  0
   15.7184   -0.8250    0.0000 C   0  0  0  0  0  0  0  0  0  0  0  0
   15.0039   -1.2375    0.0000 H   0  0  0  0  0  0  0  0  0  0  0  0
   15.7184    0.0000    0.0000 C   0  0  0  0  0  0  0  0  0  0  0  0
   16.4328   -2.0625    0.0000 H   0  0  0  0  0  0  0  0  0  0  0  0
   17.8618   -1.2375    0.0000 H   0  0  0  0  0  0  0  0  0  0  0  0
   17.8618    0.4125    0.0000 H   0  0  0  0  0  0  0  0  0  0  0  0
   14.2894   -0.8250    0.0000 H   0  0  0  0  0  0  0  0  0  0  0  0
   12.8605   -0.8250    0.0000 C   0  0  0  0  0  0  0  0  0  0  0  0
   13.5749   -1.2375    0.0000 C   0  0  0  0  0  0  0  0  0  0  0  0
   13.5749   -0.4125    0.0000 H   0  0  0  0  0  0  0  0  0  0  0  0
   13.5749   -2.0625    0.0000 C   0  0  0  0  0  0  0  0  0  0  0  0
   14.2894   -2.4750    0.0000 H   0  0  0  0  0  0  0  0  0  0  0  0
   12.8605   -2.4750    0.0000 C   0  0  0  0  0  0  0  0  0  0  0  0
   12.8605   -3.3000    0.0000 H   0  0  0  0  0  0  0  0  0  0  0  0
   12.1460   -2.0625    0.0000 C   0  0  0  0  0  0  0  0  0  0  0  0
   11.4315   -2.4750    0.0000 Cl  0  0  0  0  0  0  0  0  0  0  0  0
   12.1460   -1.2375    0.0000 C   0  0  0  0  0  0  0  0  0  0  0  0
   12.1460   -0.4125    0.0000 H   0  0  0  0  0  0  0  0  0  0  0  0
   12.8605    0.8250    0.0000 H   0  0  0  0  0  0  0  0  0  0  0  0
   12.1460    1.2375    0.0000 H   0  0  0  0  0  0  0  0  0  0  0  0
  1  2  2  0  0  0  0
  2  3  1  0  0  0  0
  3  4  1  0  0  0  0
  4  5  1  0  0  0  0
  5  6  1  0  0  0  0
  6  7  2  0  0  0  0
  6  8  1  0  0  0  0
  8  9  1  0  0  0  0
  9 10  1  0  0  0  0
  9 11  1  0  0  0  0
  9 12  1  0  0  0  0
 12 13  1  0  0  0  0
 12 14  1  0  0  0  0
 12 15  1  0  0  0  0
 15 16  1  0  0  0  0
 15 17  1  0  0  0  0
 15 18  1  0  0  0  0
  8 18  1  0  0  0  0
 18 19  1  0  0  0  0
 18 20  1  0  0  0  0
  5 21  1  0  0  0  0
  5 22  1  0  0  0  0
  3 23  1  0  0  0  0
  3 24  1  0  0  0  0
  2 25  1  0  0  0  0
 25 26  1  0  0  0  0
 26 27  1  0  0  0  0
 27 28  2  0  0  0  0
 27 29  1  0  0  0  0
 29 30  1  0  0  0  0
 30 31  2  0  0  0  0
 31 32  1  0  0  0  0
 31 33  1  0  0  0  0
 33 34  2  0  0  0  0
 34 35  1  0  0  0  0
 34 36  1  0  0  0  0
 36 37  2  0  0  0  0
 37 38  1  0  0  0  0
 38 39  2  0  0  0  0
 39 40  1  0  0  0  0
 40 41  1  0  0  0  0
 40 42  2  0  0  0  0
 30 42  1  0  0  0  0
 36 42  1  0  0  0  0
 39 43  1  0  0  0  0
 38 44  1  0  0  0  0
 37 45  1  0  0  0  0
 29 46  1  0  0  0  0
 26 47  1  0  0  0  0
 47 48  2  0  0  0  0
 48 49  1  0  0  0  0
 48 50  1  0  0  0  0
 50 51  1  0  0  0  0
 50 52  2  0  0  0  0
 52 53  1  0  0  0  0
 52 54  1  0  0  0  0
 54 55  1  0  0  0  0
 54 56  2  0  0  0  0
 47 56  1  0  0  0  0
 56 57  1  0  0  0  0
 26 58  1  0  0  0  0
 25 59  1  0  0  0  0
M  END
> <Potency>
7.33262892412536

> <pIC50>
5.134740292405508

> <Outcome>
Active

> <is_active>
1

$$$$

  Mrv1921 08232120312D          

 41 44  0  0  0  0            999 V2000
    2.1434   -7.0125    0.0000 N   0  0  0  0  0  0  0  0  0  0  0  0
    2.1434   -6.1875    0.0000 C   0  0  0  0  0  0  0  0  0  0  0  0
    2.1434   -5.3625    0.0000 C   0  0  0  0  0  0  0  0  0  0  0  0
    2.8579   -4.9500    0.0000 C   0  0  0  0  0  0  0  0  0  0  0  0
    3.5724   -5.3625    0.0000 H   0  0  0  0  0  0  0  0  0  0  0  0
    2.8579   -4.1250    0.0000 C   0  0  0  0  0  0  0  0  0  0  0  0
    3.5724   -3.7125    0.0000 Cl  0  0  0  0  0  0  0  0  0  0  0  0
    2.1434   -3.7125    0.0000 C   0  0  0  0  0  0  0  0  0  0  0  0
    2.1434   -2.8875    0.0000 H   0  0  0  0  0  0  0  0  0  0  0  0
    1.4289   -4.1250    0.0000 C   0  0  0  0  0  0  0  0  0  0  0  0
    1.4289   -4.9500    0.0000 C   0  0  0  0  0  0  0  0  0  0  0  0
    0.7145   -5.3625    0.0000 N   0  0  0  0  0  0  0  0  0  0  0  0
    0.0000   -4.9500    0.0000 C   0  0  0  0  0  0  0  0  0  0  0  0
    0.0000   -4.1250    0.0000 C   0  0  0  0  0  0  0  0  0  0  0  0
    0.7145   -3.7125    0.0000 C   0  0  0  0  0  0  0  0  0  0  0  0
    0.7145   -2.8875    0.0000 C   0  0  0  0  0  0  0  0  0  0  0  0
    0.0000   -2.4750    0.0000 O   0  0  0  0  0  0  0  0  0  0  0  0
    1.4289   -2.4750    0.0000 N   0  0  0  0  0  0  0  0  0  0  0  0
    1.4289   -1.6500    0.0000 C   0  0  0  0  0  0  0  0  0  0  0  0
    0.7145   -1.2375    0.0000 C   0  0  0  0  0  0  0  0  0  0  0  0
   -0.1105   -1.2375    0.0000 H   0  0  0  0  0  0  0  0  0  0  0  0
    0.7145   -0.4125    0.0000 N   0  0  0  0  0  0  0  0  0  0  0  0
    1.4289    0.0000    0.0000 C   0  0  0  0  0  0  0  0  0  0  0  0
    1.4289    0.8250    0.0000 H   0  0  0  0  0  0  0  0  0  0  0  0
    2.1434   -0.4125    0.0000 C   0  0  0  0  0  0  0  0  0  0  0  0
    2.8579    0.0000    0.0000 C   0  0  0  0  0  0  0  0  0  0  0  0
    3.5724   -0.4125    0.0000 C   0  0  0  0  0  0  0  0  0  0  0  0
    3.5724   -1.2375    0.0000 C   0  0  0  0  0  0  0  0  0  0  0  0
    2.8579   -1.6500    0.0000 C   0  0  0  0  0  0  0  0  0  0  0  0
    2.8579   -2.4750    0.0000 H   0  0  0  0  0  0  0  0  0  0  0  0
    2.1434   -1.2375    0.0000 C   0  0  0  0  0  0  0  0  0  0  0  0
    4.2868   -1.6500    0.0000 H   0  0  0  0  0  0  0  0  0  0  0  0
    4.2868   -0.0000    0.0000 H   0  0  0  0  0  0  0  0  0  0  0  0
    2.8579    0.8250    0.0000 H   0  0  0  0  0  0  0  0  0  0  0  0
    0.7145   -2.0625    0.0000 H   0  0  0  0  0  0  0  0  0  0  0  0
    1.4289   -3.3000    0.0000 H   0  0  0  0  0  0  0  0  0  0  0  0
   -0.4533   -3.4357    0.0000 H   0  0  0  0  0  0  0  0  0  0  0  0
   -0.8236   -4.0770    0.0000 H   0  0  0  0  0  0  0  0  0  0  0  0
   -0.8236   -4.9980    0.0000 H   0  0  0  0  0  0  0  0  0  0  0  0
   -0.4533   -5.6393    0.0000 H   0  0  0  0  0  0  0  0  0  0  0  0
    0.7145   -6.1875    0.0000 H   0  0  0  0  0  0  0  0  0  0  0  0
  1  2  3  0  0  0  0
  2  3  1  0  0  0  0
  3  4  2  0  0  0  0
  4  5  1  0  0  0  0
  4  6  1  0  0  0  0
  6  7  1  0  0  0  0
  6  8  2  0  0  0  0
  8  9  1  0  0  0  0
  8 10  1  0  0  0  0
 10 11  2  0  0  0  0
  3 11  1  0  0  0  0
 11 12  1  0  0  0  0
 12 13  1  0  0  0  0
 13 14  1  0  0  0  0
 14 15  1  0  0  0  0
 10 15  1  0  0  0  0
 15 16  1  0  0  0  0
 16 17  2  0  0  0  0
 16 18  1  0  0  0  0
 18 19  1  0  0  0  0
 19 20  2  0  0  0  0
 20 21  1  0  0  0  0
 20 22  1  0  0  0  0
 22 23  2  0  0  0  0
 23 24  1  0  0  0  0
 23 25  1  0  0  0  0
 25 26  2  0  0  0  0
 26 27  1  0  0  0  0
 27 28  2  0  0  0  0
 28 29  1  0  0  0  0
 29 30  1  0  0  0  0
 29 31  2  0  0  0  0
 19 31  1  0  0  0  0
 25 31  1  0  0  0  0
 28 32  1  0  0  0  0
 27 33  1  0  0  0  0
 26 34  1  0  0  0  0
 18 35  1  0  0  0  0
 15 36  1  0  0  0  0
 14 37  1  0  0  0  0
 14 38  1  0  0  0  0
 13 39  1  0  0  0  0
 13 40  1  0  0  0  0
 12 41  1  0  0  0  0
M  END
> <Potency>
0.2421584932742

> <pIC50>
6.615900294251419

> <Outcome>
Active

> <is_active>
1

$$$$

  Mrv1921 08232120312D          

 63 68  0  0  0  0            999 V2000
    4.3209   -3.0075    0.0000 C   0  0  0  0  0  0  0  0  0  0  0  0
    3.5084   -2.8642    0.0000 C   0  0  0  0  0  0  0  0  0  0  0  0
    2.9781   -3.4962    0.0000 C   0  0  0  0  0  0  0  0  0  0  0  0
    2.8823   -4.3156    0.0000 H   0  0  0  0  0  0  0  0  0  0  0  0
    3.5782   -4.0624    0.0000 H   0  0  0  0  0  0  0  0  0  0  0  0
    2.1656   -3.3529    0.0000 N   0  0  0  0  0  0  0  0  0  0  0  0
    1.5155   -3.8609    0.0000 N   0  0  0  0  0  0  0  0  0  0  0  0
    0.8316   -3.3995    0.0000 C   0  0  0  0  0  0  0  0  0  0  0  0
    1.0590   -2.6065    0.0000 C   0  0  0  0  0  0  0  0  0  0  0  0
    0.5510   -1.9564    0.0000 H   0  0  0  0  0  0  0  0  0  0  0  0
    1.8835   -2.5777    0.0000 C   0  0  0  0  0  0  0  0  0  0  0  0
    2.4138   -1.9457    0.0000 C   0  0  0  0  0  0  0  0  0  0  0  0
    2.5095   -1.1263    0.0000 H   0  0  0  0  0  0  0  0  0  0  0  0
    1.8137   -1.3796    0.0000 H   0  0  0  0  0  0  0  0  0  0  0  0
    3.2262   -2.0890    0.0000 N   0  0  0  0  0  0  0  0  0  0  0  0
    3.7565   -1.4570    0.0000 C   0  0  0  0  0  0  0  0  0  0  0  0
    3.4744   -0.6817    0.0000 O   0  0  0  0  0  0  0  0  0  0  0  0
    4.5690   -1.6002    0.0000 C   0  0  0  0  0  0  0  0  0  0  0  0
    5.0993   -0.9683    0.0000 C   0  0  0  0  0  0  0  0  0  0  0  0
    5.6296   -1.6002    0.0000 C   0  0  0  0  0  0  0  0  0  0  0  0
    6.4421   -1.4570    0.0000 O   0  0  0  0  0  0  0  0  0  0  0  0
    5.3474   -2.3755    0.0000 N   0  0  0  0  0  0  0  0  0  0  0  0
    5.8777   -3.0075    0.0000 C   0  0  0  0  0  0  0  0  0  0  0  0
    6.6902   -2.8642    0.0000 C   0  0  0  0  0  0  0  0  0  0  0  0
    7.3222   -2.3339    0.0000 H   0  0  0  0  0  0  0  0  0  0  0  0
    7.2205   -3.4962    0.0000 N   0  0  0  0  0  0  0  0  0  0  0  0
    6.9383   -4.2715    0.0000 C   0  0  0  0  0  0  0  0  0  0  0  0
    7.4686   -4.9034    0.0000 H   0  0  0  0  0  0  0  0  0  0  0  0
    6.1259   -4.4147    0.0000 C   0  0  0  0  0  0  0  0  0  0  0  0
    5.8437   -5.1900    0.0000 C   0  0  0  0  0  0  0  0  0  0  0  0
    5.0312   -5.3332    0.0000 C   0  0  0  0  0  0  0  0  0  0  0  0
    4.5009   -4.7012    0.0000 C   0  0  0  0  0  0  0  0  0  0  0  0
    4.7831   -3.9260    0.0000 C   0  0  0  0  0  0  0  0  0  0  0  0
    5.3134   -4.5580    0.0000 H   0  0  0  0  0  0  0  0  0  0  0  0
    5.5956   -3.7827    0.0000 C   0  0  0  0  0  0  0  0  0  0  0  0
    3.7870   -5.1146    0.0000 H   0  0  0  0  0  0  0  0  0  0  0  0
    4.7491   -6.1085    0.0000 H   0  0  0  0  0  0  0  0  0  0  0  0
    6.3740   -5.8219    0.0000 H   0  0  0  0  0  0  0  0  0  0  0  0
    6.1599   -2.2322    0.0000 H   0  0  0  0  0  0  0  0  0  0  0  0
    4.3848   -0.5558    0.0000 C   0  0  0  0  0  0  0  0  0  0  0  0
    5.0993   -0.1433    0.0000 H   0  0  0  0  0  0  0  0  0  0  0  0
    3.7628   -0.0138    0.0000 H   0  0  0  0  0  0  0  0  0  0  0  0
    4.3848    0.2692    0.0000 C   0  0  0  0  0  0  0  0  0  0  0  0
    4.4114    1.0938    0.0000 H   0  0  0  0  0  0  0  0  0  0  0  0
    3.6984    0.7268    0.0000 H   0  0  0  0  0  0  0  0  0  0  0  0
    5.0993    0.6817    0.0000 O   0  0  0  0  0  0  0  0  0  0  0  0
    5.8138    0.2692    0.0000 C   0  0  0  0  0  0  0  0  0  0  0  0
    6.5282    0.6817    0.0000 C   0  0  0  0  0  0  0  0  0  0  0  0
    7.2427    0.2692    0.0000 C   0  0  0  0  0  0  0  0  0  0  0  0
    7.2427   -0.5558    0.0000 C   0  0  0  0  0  0  0  0  0  0  0  0
    7.9572   -0.9683    0.0000 Cl  0  0  0  0  0  0  0  0  0  0  0  0
    6.5282   -0.9683    0.0000 C   0  0  0  0  0  0  0  0  0  0  0  0
    7.2040   -1.4415    0.0000 H   0  0  0  0  0  0  0  0  0  0  0  0
    5.8138   -0.5558    0.0000 C   0  0  0  0  0  0  0  0  0  0  0  0
    7.9572    0.6817    0.0000 H   0  0  0  0  0  0  0  0  0  0  0  0
    6.5282    1.5067    0.0000 H   0  0  0  0  0  0  0  0  0  0  0  0
    5.3167   -1.9489    0.0000 H   0  0  0  0  0  0  0  0  0  0  0  0
    4.2868   -0.8250    0.0000 H   0  0  0  0  0  0  0  0  0  0  0  0
    0.0563   -3.6817    0.0000 H   0  0  0  0  0  0  0  0  0  0  0  0
    4.0387   -2.2322    0.0000 H   0  0  0  0  0  0  0  0  0  0  0  0
    4.1776   -3.8199    0.0000 H   0  0  0  0  0  0  0  0  0  0  0  0
    5.1333   -3.1507    0.0000 H   0  0  0  0  0  0  0  0  0  0  0  0
    4.4641   -2.1950    0.0000 H   0  0  0  0  0  0  0  0  0  0  0  0
  1  2  1  0  0  0  0
  2  3  1  0  0  0  0
  3  4  1  0  0  0  0
  3  5  1  0  0  0  0
  3  6  1  0  0  0  0
  6  7  1  0  0  0  0
  7  8  2  0  0  0  0
  8  9  1  0  0  0  0
  9 10  1  0  0  0  0
  9 11  2  0  0  0  0
  6 11  1  0  0  0  0
 11 12  1  0  0  0  0
 12 13  1  0  0  0  0
 12 14  1  0  0  0  0
 12 15  1  0  0  0  0
  2 15  1  0  0  0  0
 15 16  1  0  0  0  0
 16 17  2  0  0  0  0
 16 18  1  0  0  0  0
 18 19  1  0  0  0  0
 19 20  1  0  0  0  0
 20 21  2  0  0  0  0
 20 22  1  0  0  0  0
 22 23  1  0  0  0  0
 23 24  2  0  0  0  0
 24 25  1  0  0  0  0
 24 26  1  0  0  0  0
 26 27  2  0  0  0  0
 27 28  1  0  0  0  0
 27 29  1  0  0  0  0
 29 30  2  0  0  0  0
 30 31  1  0  0  0  0
 31 32  2  0  0  0  0
 32 33  1  0  0  0  0
 33 34  1  0  0  0  0
 33 35  2  0  0  0  0
 23 35  1  0  0  0  0
 29 35  1  0  0  0  0
 32 36  1  0  0  0  0
 31 37  1  0  0  0  0
 30 38  1  0  0  0  0
 22 39  1  0  0  0  0
 19 40  1  0  0  0  0
 40 41  1  0  0  0  0
 40 42  1  0  0  0  0
 40 43  1  0  0  0  0
 43 44  1  0  0  0  0
 43 45  1  0  0  0  0
 43 46  1  0  0  0  0
 46 47  1  0  0  0  0
 47 48  2  0  0  0  0
 48 49  1  0  0  0  0
 49 50  2  0  0  0  0
 50 51  1  0  0  0  0
 50 52  1  0  0  0  0
 52 53  1  0  0  0  0
 52 54  2  0  0  0  0
 19 54  1  0  0  0  0
 47 54  1  0  0  0  0
 49 55  1  0  0  0  0
 48 56  1  0  0  0  0
 18 57  1  0  0  0  0
 18 58  1  0  0  0  0
  8 59  1  0  0  0  0
  2 60  1  0  0  0  0
  1 61  1  0  0  0  0
  1 62  1  0  0  0  0
  1 63  1  0  0  0  0
M  END
> <Potency>
2.11226612725819

> <pIC50>
5.67525136534347

> <Outcome>
Active

> <is_active>
1

$$$$

  Mrv1921 08232120312D          

 55 58  0  0  0  0            999 V2000
   -0.1105   -3.7125    0.0000 C   0  0  0  0  0  0  0  0  0  0  0  0
    0.7145   -3.7125    0.0000 C   0  0  0  0  0  0  0  0  0  0  0  0
    0.7145   -4.5375    0.0000 N   0  0  0  0  0  0  0  0  0  0  0  0
    0.0000   -4.9500    0.0000 C   0  0  0  0  0  0  0  0  0  0  0  0
   -0.7145   -4.5375    0.0000 O   0  0  0  0  0  0  0  0  0  0  0  0
    0.0000   -5.7750    0.0000 C   0  0  0  0  0  0  0  0  0  0  0  0
    0.7145   -6.1875    0.0000 C   0  0  0  0  0  0  0  0  0  0  0  0
    1.5381   -6.1395    0.0000 H   0  0  0  0  0  0  0  0  0  0  0  0
    1.1678   -5.4982    0.0000 H   0  0  0  0  0  0  0  0  0  0  0  0
    0.7145   -7.0125    0.0000 C   0  0  0  0  0  0  0  0  0  0  0  0
    1.1678   -7.7018    0.0000 H   0  0  0  0  0  0  0  0  0  0  0  0
    1.5381   -7.0605    0.0000 H   0  0  0  0  0  0  0  0  0  0  0  0
    0.0000   -7.4250    0.0000 C   0  0  0  0  0  0  0  0  0  0  0  0
    0.0000   -8.2500    0.0000 O   0  0  0  0  0  0  0  0  0  0  0  0
   -0.7145   -7.0125    0.0000 N   0  0  0  0  0  0  0  0  0  0  0  0
   -1.4289   -7.4250    0.0000 H   0  0  0  0  0  0  0  0  0  0  0  0
   -0.7145   -6.1875    0.0000 C   0  0  0  0  0  0  0  0  0  0  0  0
   -1.4897   -5.9053    0.0000 H   0  0  0  0  0  0  0  0  0  0  0  0
   -1.4897   -6.4697    0.0000 H   0  0  0  0  0  0  0  0  0  0  0  0
   -0.7145   -5.3625    0.0000 H   0  0  0  0  0  0  0  0  0  0  0  0
    1.4289   -4.9500    0.0000 H   0  0  0  0  0  0  0  0  0  0  0  0
    0.7145   -2.8875    0.0000 C   0  0  0  0  0  0  0  0  0  0  0  0
    0.0000   -2.4750    0.0000 O   0  0  0  0  0  0  0  0  0  0  0  0
    1.4289   -2.4750    0.0000 N   0  0  0  0  0  0  0  0  0  0  0  0
    1.4289   -1.6500    0.0000 C   0  0  0  0  0  0  0  0  0  0  0  0
    0.7145   -1.2375    0.0000 C   0  0  0  0  0  0  0  0  0  0  0  0
    0.0000   -1.6500    0.0000 H   0  0  0  0  0  0  0  0  0  0  0  0
    0.7145   -0.4125    0.0000 N   0  0  0  0  0  0  0  0  0  0  0  0
    1.4289    0.0000    0.0000 C   0  0  0  0  0  0  0  0  0  0  0  0
    1.4289    0.8250    0.0000 H   0  0  0  0  0  0  0  0  0  0  0  0
    2.1434   -0.4125    0.0000 C   0  0  0  0  0  0  0  0  0  0  0  0
    2.8579    0.0000    0.0000 C   0  0  0  0  0  0  0  0  0  0  0  0
    3.5724   -0.4125    0.0000 C   0  0  0  0  0  0  0  0  0  0  0  0
    3.5724   -1.2375    0.0000 C   0  0  0  0  0  0  0  0  0  0  0  0
    2.8579   -1.6500    0.0000 C   0  0  0  0  0  0  0  0  0  0  0  0
    3.3155   -2.3365    0.0000 H   0  0  0  0  0  0  0  0  0  0  0  0
    2.1434   -1.2375    0.0000 C   0  0  0  0  0  0  0  0  0  0  0  0
    4.2868   -1.6500    0.0000 H   0  0  0  0  0  0  0  0  0  0  0  0
    4.2868   -0.0000    0.0000 H   0  0  0  0  0  0  0  0  0  0  0  0
    2.8579    0.8250    0.0000 H   0  0  0  0  0  0  0  0  0  0  0  0
    2.1911   -2.1593    0.0000 H   0  0  0  0  0  0  0  0  0  0  0  0
    1.5395   -3.7125    0.0000 C   0  0  0  0  0  0  0  0  0  0  0  0
    1.9520   -2.9980    0.0000 C   0  0  0  0  0  0  0  0  0  0  0  0
    2.3645   -3.7125    0.0000 H   0  0  0  0  0  0  0  0  0  0  0  0
    2.7770   -2.9980    0.0000 C   0  0  0  0  0  0  0  0  0  0  0  0
    2.4227   -2.2529    0.0000 H   0  0  0  0  0  0  0  0  0  0  0  0
    3.1895   -3.7125    0.0000 C   0  0  0  0  0  0  0  0  0  0  0  0
    4.0145   -3.7125    0.0000 Cl  0  0  0  0  0  0  0  0  0  0  0  0
    2.7770   -4.4270    0.0000 C   0  0  0  0  0  0  0  0  0  0  0  0
    3.1895   -5.1414    0.0000 Cl  0  0  0  0  0  0  0  0  0  0  0  0
    1.9520   -4.4270    0.0000 C   0  0  0  0  0  0  0  0  0  0  0  0
    2.2677   -5.1892    0.0000 H   0  0  0  0  0  0  0  0  0  0  0  0
   -0.1105   -2.8875    0.0000 H   0  0  0  0  0  0  0  0  0  0  0  0
   -0.9355   -3.7125    0.0000 H   0  0  0  0  0  0  0  0  0  0  0  0
   -0.1105   -4.5375    0.0000 H   0  0  0  0  0  0  0  0  0  0  0  0
  1  2  1  0  0  0  0
  2  3  1  0  0  0  0
  3  4  1  0  0  0  0
  4  5  2  0  0  0  0
  4  6  1  0  0  0  0
  6  7  1  0  0  0  0
  7  8  1  0  0  0  0
  7  9  1  0  0  0  0
  7 10  1  0  0  0  0
 10 11  1  0  0  0  0
 10 12  1  0  0  0  0
 10 13  1  0  0  0  0
 13 14  2  0  0  0  0
 13 15  1  0  0  0  0
 15 16  1  0  0  0  0
 15 17  1  0  0  0  0
  6 17  1  0  0  0  0
 17 18  1  0  0  0  0
 17 19  1  0  0  0  0
  6 20  1  0  0  0  0
  3 21  1  0  0  0  0
  2 22  1  0  0  0  0
 22 23  2  0  0  0  0
 22 24  1  0  0  0  0
 24 25  1  0  0  0  0
 25 26  2  0  0  0  0
 26 27  1  0  0  0  0
 26 28  1  0  0  0  0
 28 29  2  0  0  0  0
 29 30  1  0  0  0  0
 29 31  1  0  0  0  0
 31 32  2  0  0  0  0
 32 33  1  0  0  0  0
 33 34  2  0  0  0  0
 34 35  1  0  0  0  0
 35 36  1  0  0  0  0
 35 37  2  0  0  0  0
 25 37  1  0  0  0  0
 31 37  1  0  0  0  0
 34 38  1  0  0  0  0
 33 39  1  0  0  0  0
 32 40  1  0  0  0  0
 24 41  1  0  0  0  0
  2 42  1  0  0  0  0
 42 43  2  0  0  0  0
 43 44  1  0  0  0  0
 43 45  1  0  0  0  0
 45 46  1  0  0  0  0
 45 47  2  0  0  0  0
 47 48  1  0  0  0  0
 47 49  1  0  0  0  0
 49 50  1  0  0  0  0
 49 51  2  0  0  0  0
 42 51  1  0  0  0  0
 51 52  1  0  0  0  0
  1 53  1  0  0  0  0
  1 54  1  0  0  0  0
  1 55  1  0  0  0  0
M  END
> <Potency>
4.09605934036077

> <pIC50>
5.387633760283065

> <Outcome>
Active

> <is_active>
1

$$$$

  Mrv1921 08232120312D          

 57 61  0  0  0  0            999 V2000
    2.1316   -1.1705    0.0000 O   0  0  0  0  0  0  0  0  0  0  0  0
    2.4138   -1.9457    0.0000 C   0  0  0  0  0  0  0  0  0  0  0  0
    3.2262   -2.0890    0.0000 C   0  0  0  0  0  0  0  0  0  0  0  0
    3.7565   -1.4570    0.0000 O   0  0  0  0  0  0  0  0  0  0  0  0
    4.5690   -1.6002    0.0000 C   0  0  0  0  0  0  0  0  0  0  0  0
    5.0993   -0.9683    0.0000 C   0  0  0  0  0  0  0  0  0  0  0  0
    5.6296   -1.6002    0.0000 C   0  0  0  0  0  0  0  0  0  0  0  0
    6.4421   -1.4570    0.0000 O   0  0  0  0  0  0  0  0  0  0  0  0
    5.3474   -2.3755    0.0000 N   0  0  0  0  0  0  0  0  0  0  0  0
    5.8777   -3.0075    0.0000 C   0  0  0  0  0  0  0  0  0  0  0  0
    6.6902   -2.8642    0.0000 C   0  0  0  0  0  0  0  0  0  0  0  0
    6.9724   -2.0890    0.0000 H   0  0  0  0  0  0  0  0  0  0  0  0
    7.2205   -3.4962    0.0000 N   0  0  0  0  0  0  0  0  0  0  0  0
    6.9383   -4.2715    0.0000 C   0  0  0  0  0  0  0  0  0  0  0  0
    7.4686   -4.9034    0.0000 H   0  0  0  0  0  0  0  0  0  0  0  0
    6.1259   -4.4147    0.0000 C   0  0  0  0  0  0  0  0  0  0  0  0
    5.8437   -5.1900    0.0000 C   0  0  0  0  0  0  0  0  0  0  0  0
    5.0312   -5.3332    0.0000 C   0  0  0  0  0  0  0  0  0  0  0  0
    4.5009   -4.7012    0.0000 C   0  0  0  0  0  0  0  0  0  0  0  0
    4.7831   -3.9260    0.0000 C   0  0  0  0  0  0  0  0  0  0  0  0
    3.9995   -3.6679    0.0000 H   0  0  0  0  0  0  0  0  0  0  0  0
    5.5956   -3.7827    0.0000 C   0  0  0  0  0  0  0  0  0  0  0  0
    3.6885   -4.8445    0.0000 H   0  0  0  0  0  0  0  0  0  0  0  0
    4.7491   -6.1085    0.0000 H   0  0  0  0  0  0  0  0  0  0  0  0
    6.3740   -5.8219    0.0000 H   0  0  0  0  0  0  0  0  0  0  0  0
    5.0177   -3.1318    0.0000 H   0  0  0  0  0  0  0  0  0  0  0  0
    4.3848   -0.5558    0.0000 C   0  0  0  0  0  0  0  0  0  0  0  0
    3.5612   -0.6037    0.0000 H   0  0  0  0  0  0  0  0  0  0  0  0
    3.9315   -1.2450    0.0000 H   0  0  0  0  0  0  0  0  0  0  0  0
    4.3848    0.2692    0.0000 C   0  0  0  0  0  0  0  0  0  0  0  0
    3.9315    0.9585    0.0000 H   0  0  0  0  0  0  0  0  0  0  0  0
    3.5612    0.3172    0.0000 H   0  0  0  0  0  0  0  0  0  0  0  0
    5.0993    0.6817    0.0000 O   0  0  0  0  0  0  0  0  0  0  0  0
    5.8138    0.2692    0.0000 C   0  0  0  0  0  0  0  0  0  0  0  0
    6.5282    0.6817    0.0000 C   0  0  0  0  0  0  0  0  0  0  0  0
    7.2427    0.2692    0.0000 C   0  0  0  0  0  0  0  0  0  0  0  0
    7.2427   -0.5558    0.0000 C   0  0  0  0  0  0  0  0  0  0  0  0
    7.9572   -0.9683    0.0000 Cl  0  0  0  0  0  0  0  0  0  0  0  0
    6.5282   -0.9683    0.0000 C   0  0  0  0  0  0  0  0  0  0  0  0
    7.2040   -1.4415    0.0000 H   0  0  0  0  0  0  0  0  0  0  0  0
    5.8138   -0.5558    0.0000 C   0  0  0  0  0  0  0  0  0  0  0  0
    7.9572    0.6817    0.0000 H   0  0  0  0  0  0  0  0  0  0  0  0
    6.5282    1.5067    0.0000 H   0  0  0  0  0  0  0  0  0  0  0  0
    4.4732   -2.4197    0.0000 H   0  0  0  0  0  0  0  0  0  0  0  0
    5.1691   -2.1664    0.0000 H   0  0  0  0  0  0  0  0  0  0  0  0
    3.1304   -2.9084    0.0000 H   0  0  0  0  0  0  0  0  0  0  0  0
    3.8263   -2.6551    0.0000 H   0  0  0  0  0  0  0  0  0  0  0  0
    1.8835   -2.5777    0.0000 N   0  0  0  0  0  0  0  0  0  0  0  0
    1.0710   -2.4344    0.0000 C   0  0  0  0  0  0  0  0  0  0  0  0
    0.4775   -3.0075    0.0000 N   0  0  0  0  0  0  0  0  0  0  0  0
   -0.2509   -2.6202    0.0000 C   0  0  0  0  0  0  0  0  0  0  0  0
   -0.9924   -2.9819    0.0000 H   0  0  0  0  0  0  0  0  0  0  0  0
   -0.1076   -1.8078    0.0000 C   0  0  0  0  0  0  0  0  0  0  0  0
   -0.6807   -1.2143    0.0000 H   0  0  0  0  0  0  0  0  0  0  0  0
    0.7093   -1.6929    0.0000 N   0  0  0  0  0  0  0  0  0  0  0  0
    1.0967   -0.9645    0.0000 H   0  0  0  0  0  0  0  0  0  0  0  0
    2.1656   -3.3529    0.0000 H   0  0  0  0  0  0  0  0  0  0  0  0
  1  2  2  0  0  0  0
  2  3  1  0  0  0  0
  3  4  1  0  0  0  0
  4  5  1  0  0  0  0
  5  6  1  0  0  0  0
  6  7  1  0  0  0  0
  7  8  2  0  0  0  0
  7  9  1  0  0  0  0
  9 10  1  0  0  0  0
 10 11  2  0  0  0  0
 11 12  1  0  0  0  0
 11 13  1  0  0  0  0
 13 14  2  0  0  0  0
 14 15  1  0  0  0  0
 14 16  1  0  0  0  0
 16 17  2  0  0  0  0
 17 18  1  0  0  0  0
 18 19  2  0  0  0  0
 19 20  1  0  0  0  0
 20 21  1  0  0  0  0
 20 22  2  0  0  0  0
 10 22  1  0  0  0  0
 16 22  1  0  0  0  0
 19 23  1  0  0  0  0
 18 24  1  0  0  0  0
 17 25  1  0  0  0  0
  9 26  1  0  0  0  0
  6 27  1  0  0  0  0
 27 28  1  0  0  0  0
 27 29  1  0  0  0  0
 27 30  1  0  0  0  0
 30 31  1  0  0  0  0
 30 32  1  0  0  0  0
 30 33  1  0  0  0  0
 33 34  1  0  0  0  0
 34 35  2  0  0  0  0
 35 36  1  0  0  0  0
 36 37  2  0  0  0  0
 37 38  1  0  0  0  0
 37 39  1  0  0  0  0
 39 40  1  0  0  0  0
 39 41  2  0  0  0  0
  6 41  1  0  0  0  0
 34 41  1  0  0  0  0
 36 42  1  0  0  0  0
 35 43  1  0  0  0  0
  5 44  1  0  0  0  0
  5 45  1  0  0  0  0
  3 46  1  0  0  0  0
  3 47  1  0  0  0  0
  2 48  1  0  0  0  0
 48 49  1  0  0  0  0
 49 50  2  0  0  0  0
 50 51  1  0  0  0  0
 51 52  1  0  0  0  0
 51 53  2  0  0  0  0
 53 54  1  0  0  0  0
 53 55  1  0  0  0  0
 49 55  1  0  0  0  0
 55 56  1  0  0  0  0
 48 57  1  0  0  0  0
M  END
> <Potency>
1.9861426306451

> <pIC50>
5.701989566778257

> <Outcome>
Active

> <is_active>
1

$$$$

  Mrv1921 08232120312D          

 43 46  0  0  0  0            999 V2000
    2.1434   -2.8875    0.0000 O   0  0  0  0  0  0  0  0  0  0  0  0
    1.4289   -2.4750    0.0000 C   0  0  0  0  0  0  0  0  0  0  0  0
    1.4289   -1.6500    0.0000 C   0  0  0  0  0  0  0  0  0  0  0  0
    0.7145   -1.2375    0.0000 C   0  0  0  0  0  0  0  0  0  0  0  0
    0.0000   -1.6500    0.0000 H   0  0  0  0  0  0  0  0  0  0  0  0
    0.7145   -0.4125    0.0000 N   0  0  0  0  0  0  0  0  0  0  0  0
    1.4289    0.0000    0.0000 C   0  0  0  0  0  0  0  0  0  0  0  0
    1.4289    0.8250    0.0000 H   0  0  0  0  0  0  0  0  0  0  0  0
    2.1434   -0.4125    0.0000 C   0  0  0  0  0  0  0  0  0  0  0  0
    2.8579    0.0000    0.0000 C   0  0  0  0  0  0  0  0  0  0  0  0
    3.5724   -0.4125    0.0000 C   0  0  0  0  0  0  0  0  0  0  0  0
    3.5724   -1.2375    0.0000 C   0  0  0  0  0  0  0  0  0  0  0  0
    2.8579   -1.6500    0.0000 C   0  0  0  0  0  0  0  0  0  0  0  0
    2.8579   -2.4750    0.0000 H   0  0  0  0  0  0  0  0  0  0  0  0
    2.1434   -1.2375    0.0000 C   0  0  0  0  0  0  0  0  0  0  0  0
    4.2868   -1.6500    0.0000 H   0  0  0  0  0  0  0  0  0  0  0  0
    4.2868   -0.0000    0.0000 H   0  0  0  0  0  0  0  0  0  0  0  0
    2.8579    0.8250    0.0000 H   0  0  0  0  0  0  0  0  0  0  0  0
    0.7145   -2.8875    0.0000 N   0  0  0  0  0  0  0  0  0  0  0  0
    0.7145   -3.7125    0.0000 C   0  0  0  0  0  0  0  0  0  0  0  0
    1.1678   -4.4018    0.0000 H   0  0  0  0  0  0  0  0  0  0  0  0
    1.5381   -3.7605    0.0000 H   0  0  0  0  0  0  0  0  0  0  0  0
    0.0000   -4.1250    0.0000 C   0  0  0  0  0  0  0  0  0  0  0  0
   -0.3703   -4.8622    0.0000 H   0  0  0  0  0  0  0  0  0  0  0  0
    0.3703   -4.8622    0.0000 H   0  0  0  0  0  0  0  0  0  0  0  0
   -0.7145   -3.7125    0.0000 N   0  0  0  0  0  0  0  0  0  0  0  0
   -1.4289   -4.1250    0.0000 C   0  0  0  0  0  0  0  0  0  0  0  0
   -1.4289   -4.9500    0.0000 C   0  0  0  0  0  0  0  0  0  0  0  0
   -0.7145   -5.3625    0.0000 H   0  0  0  0  0  0  0  0  0  0  0  0
   -2.1434   -5.3625    0.0000 C   0  0  0  0  0  0  0  0  0  0  0  0
   -2.1434   -6.1875    0.0000 H   0  0  0  0  0  0  0  0  0  0  0  0
   -2.8579   -4.9500    0.0000 C   0  0  0  0  0  0  0  0  0  0  0  0
   -3.5724   -5.3625    0.0000 H   0  0  0  0  0  0  0  0  0  0  0  0
   -2.8579   -4.1250    0.0000 C   0  0  0  0  0  0  0  0  0  0  0  0
   -3.5724   -3.7125    0.0000 H   0  0  0  0  0  0  0  0  0  0  0  0
   -2.1434   -3.7125    0.0000 C   0  0  0  0  0  0  0  0  0  0  0  0
   -2.1434   -2.8875    0.0000 H   0  0  0  0  0  0  0  0  0  0  0  0
   -0.7145   -2.8875    0.0000 C   0  0  0  0  0  0  0  0  0  0  0  0
   -1.1678   -2.1982    0.0000 H   0  0  0  0  0  0  0  0  0  0  0  0
   -1.5381   -2.8395    0.0000 H   0  0  0  0  0  0  0  0  0  0  0  0
    0.0000   -2.4750    0.0000 C   0  0  0  0  0  0  0  0  0  0  0  0
    0.7145   -2.0625    0.0000 H   0  0  0  0  0  0  0  0  0  0  0  0
    0.0000   -3.3000    0.0000 H   0  0  0  0  0  0  0  0  0  0  0  0
  1  2  2  0  0  0  0
  2  3  1  0  0  0  0
  3  4  2  0  0  0  0
  4  5  1  0  0  0  0
  4  6  1  0  0  0  0
  6  7  2  0  0  0  0
  7  8  1  0  0  0  0
  7  9  1  0  0  0  0
  9 10  2  0  0  0  0
 10 11  1  0  0  0  0
 11 12  2  0  0  0  0
 12 13  1  0  0  0  0
 13 14  1  0  0  0  0
 13 15  2  0  0  0  0
  3 15  1  0  0  0  0
  9 15  1  0  0  0  0
 12 16  1  0  0  0  0
 11 17  1  0  0  0  0
 10 18  1  0  0  0  0
  2 19  1  0  0  0  0
 19 20  1  0  0  0  0
 20 21  1  0  0  0  0
 20 22  1  0  0  0  0
 20 23  1  0  0  0  0
 23 24  1  0  0  0  0
 23 25  1  0  0  0  0
 23 26  1  0  0  0  0
 26 27  1  0  0  0  0
 27 28  2  0  0  0  0
 28 29  1  0  0  0  0
 28 30  1  0  0  0  0
 30 31  1  0  0  0  0
 30 32  2  0  0  0  0
 32 33  1  0  0  0  0
 32 34  1  0  0  0  0
 34 35  1  0  0  0  0
 34 36  2  0  0  0  0
 27 36  1  0  0  0  0
 36 37  1  0  0  0  0
 26 38  1  0  0  0  0
 38 39  1  0  0  0  0
 38 40  1  0  0  0  0
 38 41  1  0  0  0  0
 19 41  1  0  0  0  0
 41 42  1  0  0  0  0
 41 43  1  0  0  0  0
M  END
> <Potency>
5.44560364628271

> <pIC50>
5.263953971607231

> <Outcome>
Active

> <is_active>
1

$$$$

  Mrv1921 08232120312D          

 29 29  0  0  0  0            999 V2000
    1.4289   -2.4750    0.0000 C   0  0  0  0  0  0  0  0  0  0  0  0
    1.4289   -1.6500    0.0000 N   0  0  0  0  0  0  0  0  0  0  0  0
    0.7145   -1.2375    0.0000 C   0  0  0  0  0  0  0  0  0  0  0  0
    0.0000   -1.6500    0.0000 C   0  0  0  0  0  0  0  0  0  0  0  0
    0.0000   -2.4750    0.0000 O   0  0  0  0  0  0  0  0  0  0  0  0
   -0.7145   -1.2375    0.0000 N   0  0  0  0  0  0  0  0  0  0  0  0
   -1.4289   -1.6500    0.0000 C   0  0  0  0  0  0  0  0  0  0  0  0
   -1.4289   -2.4750    0.0000 C   0  0  0  0  0  0  0  0  0  0  0  0
   -0.7145   -2.8875    0.0000 H   0  0  0  0  0  0  0  0  0  0  0  0
   -2.1434   -2.8875    0.0000 C   0  0  0  0  0  0  0  0  0  0  0  0
   -2.1434   -3.7125    0.0000 H   0  0  0  0  0  0  0  0  0  0  0  0
   -2.8579   -2.4750    0.0000 C   0  0  0  0  0  0  0  0  0  0  0  0
   -3.5724   -2.8875    0.0000 H   0  0  0  0  0  0  0  0  0  0  0  0
   -2.8579   -1.6500    0.0000 C   0  0  0  0  0  0  0  0  0  0  0  0
   -3.5724   -1.2375    0.0000 H   0  0  0  0  0  0  0  0  0  0  0  0
   -2.1434   -1.2375    0.0000 C   0  0  0  0  0  0  0  0  0  0  0  0
   -2.1434   -0.4125    0.0000 Br  0  0  0  0  0  0  0  0  0  0  0  0
   -0.7145   -0.4125    0.0000 H   0  0  0  0  0  0  0  0  0  0  0  0
    1.0847   -0.5003    0.0000 H   0  0  0  0  0  0  0  0  0  0  0  0
    0.3442   -0.5003    0.0000 H   0  0  0  0  0  0  0  0  0  0  0  0
    2.1434   -1.2375    0.0000 C   0  0  0  0  0  0  0  0  0  0  0  0
    2.1434   -0.4125    0.0000 O   0  0  0  0  0  0  0  0  0  0  0  0
    2.8579   -1.6500    0.0000 C   0  0  0  0  0  0  0  0  0  0  0  0
    3.5724   -1.2375    0.0000 Cl  0  0  0  0  0  0  0  0  0  0  0  0
    2.4876   -2.3872    0.0000 H   0  0  0  0  0  0  0  0  0  0  0  0
    3.2281   -2.3872    0.0000 H   0  0  0  0  0  0  0  0  0  0  0  0
    0.6039   -2.4750    0.0000 H   0  0  0  0  0  0  0  0  0  0  0  0
    1.4289   -3.3000    0.0000 H   0  0  0  0  0  0  0  0  0  0  0  0
    2.2539   -2.4750    0.0000 H   0  0  0  0  0  0  0  0  0  0  0  0
  1  2  1  0  0  0  0
  2  3  1  0  0  0  0
  3  4  1  0  0  0  0
  4  5  2  0  0  0  0
  4  6  1  0  0  0  0
  6  7  1  0  0  0  0
  7  8  2  0  0  0  0
  8  9  1  0  0  0  0
  8 10  1  0  0  0  0
 10 11  1  0  0  0  0
 10 12  2  0  0  0  0
 12 13  1  0  0  0  0
 12 14  1  0  0  0  0
 14 15  1  0  0  0  0
 14 16  2  0  0  0  0
  7 16  1  0  0  0  0
 16 17  1  0  0  0  0
  6 18  1  0  0  0  0
  3 19  1  0  0  0  0
  3 20  1  0  0  0  0
  2 21  1  0  0  0  0
 21 22  2  0  0  0  0
 21 23  1  0  0  0  0
 23 24  1  0  0  0  0
 23 25  1  0  0  0  0
 23 26  1  0  0  0  0
  1 27  1  0  0  0  0
  1 28  1  0  0  0  0
  1 29  1  0  0  0  0
M  END
> <Potency>
5.90361378109118

> <pIC50>
5.2288820621313885

> <Outcome>
Active

> <is_active>
1

$$$$

  Mrv1921 08232120312D          

 56 60  0  0  0  0            999 V2000
    0.7145   -2.8875    0.0000 O   0  0  0  0  0  0  0  0  0  0  0  0
    1.4289   -2.4750    0.0000 C   0  0  0  0  0  0  0  0  0  0  0  0
    2.1434   -2.8875    0.0000 N   0  0  0  0  0  0  0  0  0  0  0  0
    2.1434   -3.7125    0.0000 C   0  0  0  0  0  0  0  0  0  0  0  0
    2.8579   -4.1250    0.0000 C   0  0  0  0  0  0  0  0  0  0  0  0
    3.5724   -3.7125    0.0000 H   0  0  0  0  0  0  0  0  0  0  0  0
    2.8579   -4.9500    0.0000 N   0  0  0  0  0  0  0  0  0  0  0  0
    2.1434   -5.3625    0.0000 C   0  0  0  0  0  0  0  0  0  0  0  0
    2.1434   -6.1875    0.0000 H   0  0  0  0  0  0  0  0  0  0  0  0
    1.4289   -4.9500    0.0000 C   0  0  0  0  0  0  0  0  0  0  0  0
    0.7145   -5.3625    0.0000 C   0  0  0  0  0  0  0  0  0  0  0  0
    0.0000   -4.9500    0.0000 C   0  0  0  0  0  0  0  0  0  0  0  0
    0.0000   -4.1250    0.0000 C   0  0  0  0  0  0  0  0  0  0  0  0
    0.7145   -3.7125    0.0000 C   0  0  0  0  0  0  0  0  0  0  0  0
    1.4289   -3.3000    0.0000 H   0  0  0  0  0  0  0  0  0  0  0  0
    1.4289   -4.1250    0.0000 C   0  0  0  0  0  0  0  0  0  0  0  0
   -0.7145   -3.7125    0.0000 H   0  0  0  0  0  0  0  0  0  0  0  0
   -0.7145   -5.3625    0.0000 H   0  0  0  0  0  0  0  0  0  0  0  0
    0.7145   -6.1875    0.0000 H   0  0  0  0  0  0  0  0  0  0  0  0
    2.8579   -2.4750    0.0000 H   0  0  0  0  0  0  0  0  0  0  0  0
    1.4289   -1.6500    0.0000 C   0  0  0  0  0  0  0  0  0  0  0  0
    0.7145   -1.2375    0.0000 C   0  0  0  0  0  0  0  0  0  0  0  0
   -0.1091   -1.2855    0.0000 H   0  0  0  0  0  0  0  0  0  0  0  0
    0.2611   -1.9268    0.0000 H   0  0  0  0  0  0  0  0  0  0  0  0
    0.7145   -0.4125    0.0000 N   0  0  0  0  0  0  0  0  0  0  0  0
    0.0000    0.0000    0.0000 S   0  0  0  0  0  0  0  0  0  0  0  0
    0.4125    0.7145    0.0000 O   0  0  0  0  0  0  0  0  0  0  0  0
   -0.4125   -0.7145    0.0000 O   0  0  0  0  0  0  0  0  0  0  0  0
   -0.7145    0.4125    0.0000 N   0  0  0  0  0  0  0  0  0  0  0  0
   -1.4289    0.0000    0.0000 C   0  0  0  0  0  0  0  0  0  0  0  0
   -1.7992   -0.7372    0.0000 H   0  0  0  0  0  0  0  0  0  0  0  0
   -1.0587   -0.7372    0.0000 H   0  0  0  0  0  0  0  0  0  0  0  0
   -2.1434    0.4125    0.0000 C   0  0  0  0  0  0  0  0  0  0  0  0
   -2.9670    0.3645    0.0000 H   0  0  0  0  0  0  0  0  0  0  0  0
   -2.5968   -0.2768    0.0000 H   0  0  0  0  0  0  0  0  0  0  0  0
   -2.1434    1.2375    0.0000 O   0  0  0  0  0  0  0  0  0  0  0  0
   -1.4289    1.6500    0.0000 C   0  0  0  0  0  0  0  0  0  0  0  0
   -1.0587    2.3872    0.0000 H   0  0  0  0  0  0  0  0  0  0  0  0
   -1.7992    2.3872    0.0000 H   0  0  0  0  0  0  0  0  0  0  0  0
   -0.7145    1.2375    0.0000 C   0  0  0  0  0  0  0  0  0  0  0  0
    0.1091    1.2855    0.0000 H   0  0  0  0  0  0  0  0  0  0  0  0
   -0.2611    1.9268    0.0000 H   0  0  0  0  0  0  0  0  0  0  0  0
    1.4289    0.0000    0.0000 C   0  0  0  0  0  0  0  0  0  0  0  0
    1.7992    0.7372    0.0000 H   0  0  0  0  0  0  0  0  0  0  0  0
    1.0587    0.7372    0.0000 H   0  0  0  0  0  0  0  0  0  0  0  0
    2.1434   -0.4125    0.0000 C   0  0  0  0  0  0  0  0  0  0  0  0
    2.8579    0.0000    0.0000 C   0  0  0  0  0  0  0  0  0  0  0  0
    3.5724   -0.4125    0.0000 C   0  0  0  0  0  0  0  0  0  0  0  0
    3.5724   -1.2375    0.0000 C   0  0  0  0  0  0  0  0  0  0  0  0
    4.2868   -1.6500    0.0000 Cl  0  0  0  0  0  0  0  0  0  0  0  0
    2.8579   -1.6500    0.0000 C   0  0  0  0  0  0  0  0  0  0  0  0
    2.8579   -0.8250    0.0000 H   0  0  0  0  0  0  0  0  0  0  0  0
    2.1434   -1.2375    0.0000 C   0  0  0  0  0  0  0  0  0  0  0  0
    4.2868   -0.0000    0.0000 H   0  0  0  0  0  0  0  0  0  0  0  0
    2.8579    0.8250    0.0000 H   0  0  0  0  0  0  0  0  0  0  0  0
    2.1434   -2.0625    0.0000 H   0  0  0  0  0  0  0  0  0  0  0  0
  1  2  2  0  0  0  0
  2  3  1  0  0  0  0
  3  4  1  0  0  0  0
  4  5  2  0  0  0  0
  5  6  1  0  0  0  0
  5  7  1  0  0  0  0
  7  8  2  0  0  0  0
  8  9  1  0  0  0  0
  8 10  1  0  0  0  0
 10 11  2  0  0  0  0
 11 12  1  0  0  0  0
 12 13  2  0  0  0  0
 13 14  1  0  0  0  0
 14 15  1  0  0  0  0
 14 16  2  0  0  0  0
  4 16  1  0  0  0  0
 10 16  1  0  0  0  0
 13 17  1  0  0  0  0
 12 18  1  0  0  0  0
 11 19  1  0  0  0  0
  3 20  1  0  0  0  0
  2 21  1  0  0  0  0
 21 22  1  0  0  0  0
 22 23  1  0  0  0  0
 22 24  1  0  0  0  0
 22 25  1  0  0  0  0
 25 26  1  0  0  0  0
 26 27  2  0  0  0  0
 26 28  2  0  0  0  0
 26 29  1  0  0  0  0
 29 30  1  0  0  0  0
 30 31  1  0  0  0  0
 30 32  1  0  0  0  0
 30 33  1  0  0  0  0
 33 34  1  0  0  0  0
 33 35  1  0  0  0  0
 33 36  1  0  0  0  0
 36 37  1  0  0  0  0
 37 38  1  0  0  0  0
 37 39  1  0  0  0  0
 37 40  1  0  0  0  0
 29 40  1  0  0  0  0
 40 41  1  0  0  0  0
 40 42  1  0  0  0  0
 25 43  1  0  0  0  0
 43 44  1  0  0  0  0
 43 45  1  0  0  0  0
 43 46  1  0  0  0  0
 46 47  2  0  0  0  0
 47 48  1  0  0  0  0
 48 49  2  0  0  0  0
 49 50  1  0  0  0  0
 49 51  1  0  0  0  0
 51 52  1  0  0  0  0
 51 53  2  0  0  0  0
 21 53  1  0  0  0  0
 46 53  1  0  0  0  0
 48 54  1  0  0  0  0
 47 55  1  0  0  0  0
 21 56  1  0  0  0  0
M  END
> <Potency>
0.137508891146919

> <pIC50>
6.861669220006763

> <Outcome>
Active

> <is_active>
1

$$$$

  Mrv1921 08232120312D          

 53 57  0  0  0  0            999 V2000
    5.2972   -7.1834    0.0000 N   0  0  0  0  0  0  0  0  0  0  0  0
    4.5828   -6.7709    0.0000 C   0  0  0  0  0  0  0  0  0  0  0  0
    3.8683   -6.3584    0.0000 C   0  0  0  0  0  0  0  0  0  0  0  0
    3.0714   -6.5719    0.0000 C   0  0  0  0  0  0  0  0  0  0  0  0
    2.3569   -6.9844    0.0000 H   0  0  0  0  0  0  0  0  0  0  0  0
    3.0714   -7.3969    0.0000 H   0  0  0  0  0  0  0  0  0  0  0  0
    2.8579   -5.7750    0.0000 N   0  0  0  0  0  0  0  0  0  0  0  0
    2.1434   -5.3625    0.0000 S   0  0  0  0  0  0  0  0  0  0  0  0
    2.5559   -4.6480    0.0000 O   0  0  0  0  0  0  0  0  0  0  0  0
    1.7309   -6.0770    0.0000 O   0  0  0  0  0  0  0  0  0  0  0  0
    1.4289   -4.9500    0.0000 N   0  0  0  0  0  0  0  0  0  0  0  0
    0.7145   -5.3625    0.0000 C   0  0  0  0  0  0  0  0  0  0  0  0
    0.3442   -6.0997    0.0000 H   0  0  0  0  0  0  0  0  0  0  0  0
    1.0847   -6.0997    0.0000 H   0  0  0  0  0  0  0  0  0  0  0  0
    0.0000   -4.9500    0.0000 C   0  0  0  0  0  0  0  0  0  0  0  0
   -0.7145   -5.3625    0.0000 C   0  0  0  0  0  0  0  0  0  0  0  0
   -1.4289   -4.9500    0.0000 C   0  0  0  0  0  0  0  0  0  0  0  0
   -1.4289   -4.1250    0.0000 C   0  0  0  0  0  0  0  0  0  0  0  0
   -2.1434   -3.7125    0.0000 Cl  0  0  0  0  0  0  0  0  0  0  0  0
   -0.7145   -3.7125    0.0000 C   0  0  0  0  0  0  0  0  0  0  0  0
   -0.7145   -2.8875    0.0000 H   0  0  0  0  0  0  0  0  0  0  0  0
    0.0000   -4.1250    0.0000 C   0  0  0  0  0  0  0  0  0  0  0  0
    0.7145   -3.7125    0.0000 C   0  0  0  0  0  0  0  0  0  0  0  0
    0.7145   -2.8875    0.0000 C   0  0  0  0  0  0  0  0  0  0  0  0
    0.0000   -2.4750    0.0000 O   0  0  0  0  0  0  0  0  0  0  0  0
    1.4289   -2.4750    0.0000 N   0  0  0  0  0  0  0  0  0  0  0  0
    1.4289   -1.6500    0.0000 C   0  0  0  0  0  0  0  0  0  0  0  0
    0.7145   -1.2375    0.0000 C   0  0  0  0  0  0  0  0  0  0  0  0
    0.0000   -1.6500    0.0000 H   0  0  0  0  0  0  0  0  0  0  0  0
    0.7145   -0.4125    0.0000 N   0  0  0  0  0  0  0  0  0  0  0  0
    1.4289    0.0000    0.0000 C   0  0  0  0  0  0  0  0  0  0  0  0
    1.4289    0.8250    0.0000 H   0  0  0  0  0  0  0  0  0  0  0  0
    2.1434   -0.4125    0.0000 C   0  0  0  0  0  0  0  0  0  0  0  0
    2.8579    0.0000    0.0000 C   0  0  0  0  0  0  0  0  0  0  0  0
    3.5724   -0.4125    0.0000 C   0  0  0  0  0  0  0  0  0  0  0  0
    3.5724   -1.2375    0.0000 C   0  0  0  0  0  0  0  0  0  0  0  0
    2.8579   -1.6500    0.0000 C   0  0  0  0  0  0  0  0  0  0  0  0
    2.8579   -2.4750    0.0000 H   0  0  0  0  0  0  0  0  0  0  0  0
    2.1434   -1.2375    0.0000 C   0  0  0  0  0  0  0  0  0  0  0  0
    4.2868   -1.6500    0.0000 H   0  0  0  0  0  0  0  0  0  0  0  0
    4.2868   -0.0000    0.0000 H   0  0  0  0  0  0  0  0  0  0  0  0
    2.8579    0.8250    0.0000 H   0  0  0  0  0  0  0  0  0  0  0  0
    2.2539   -2.4750    0.0000 H   0  0  0  0  0  0  0  0  0  0  0  0
    1.4289   -3.3000    0.0000 H   0  0  0  0  0  0  0  0  0  0  0  0
    1.4289   -4.1250    0.0000 C   0  0  0  0  0  0  0  0  0  0  0  0
    2.2042   -4.4072    0.0000 H   0  0  0  0  0  0  0  0  0  0  0  0
    2.2042   -3.8428    0.0000 H   0  0  0  0  0  0  0  0  0  0  0  0
   -2.1434   -5.3625    0.0000 H   0  0  0  0  0  0  0  0  0  0  0  0
   -0.7145   -6.1875    0.0000 H   0  0  0  0  0  0  0  0  0  0  0  0
    3.6548   -5.5615    0.0000 C   0  0  0  0  0  0  0  0  0  0  0  0
    4.0116   -4.8176    0.0000 H   0  0  0  0  0  0  0  0  0  0  0  0
    3.3474   -4.7959    0.0000 H   0  0  0  0  0  0  0  0  0  0  0  0
    4.5228   -5.8561    0.0000 H   0  0  0  0  0  0  0  0  0  0  0  0
  1  2  3  0  0  0  0
  2  3  1  0  0  0  0
  3  4  1  0  0  0  0
  4  5  1  0  0  0  0
  4  6  1  0  0  0  0
  4  7  1  0  0  0  0
  7  8  1  0  0  0  0
  8  9  2  0  0  0  0
  8 10  2  0  0  0  0
  8 11  1  0  0  0  0
 11 12  1  0  0  0  0
 12 13  1  0  0  0  0
 12 14  1  0  0  0  0
 12 15  1  0  0  0  0
 15 16  2  0  0  0  0
 16 17  1  0  0  0  0
 17 18  2  0  0  0  0
 18 19  1  0  0  0  0
 18 20  1  0  0  0  0
 20 21  1  0  0  0  0
 20 22  2  0  0  0  0
 15 22  1  0  0  0  0
 22 23  1  0  0  0  0
 23 24  1  0  0  0  0
 24 25  2  0  0  0  0
 24 26  1  0  0  0  0
 26 27  1  0  0  0  0
 27 28  2  0  0  0  0
 28 29  1  0  0  0  0
 28 30  1  0  0  0  0
 30 31  2  0  0  0  0
 31 32  1  0  0  0  0
 31 33  1  0  0  0  0
 33 34  2  0  0  0  0
 34 35  1  0  0  0  0
 35 36  2  0  0  0  0
 36 37  1  0  0  0  0
 37 38  1  0  0  0  0
 37 39  2  0  0  0  0
 27 39  1  0  0  0  0
 33 39  1  0  0  0  0
 36 40  1  0  0  0  0
 35 41  1  0  0  0  0
 34 42  1  0  0  0  0
 26 43  1  0  0  0  0
 23 44  1  0  0  0  0
 23 45  1  0  0  0  0
 11 45  1  0  0  0  0
 45 46  1  0  0  0  0
 45 47  1  0  0  0  0
 17 48  1  0  0  0  0
 16 49  1  0  0  0  0
  7 50  1  0  0  0  0
  3 50  1  0  0  0  0
 50 51  1  0  0  0  0
 50 52  1  0  0  0  0
  3 53  1  0  0  0  0
M  END
> <Potency>
0.0506643189034405

> <pIC50>
7.295297791332218

> <Outcome>
Active

> <is_active>
1

$$$$

  Mrv1921 08232120312D          

 68 72  0  0  0  0            999 V2000
   -1.3024   -1.2721    0.0000 C   0  0  0  0  0  0  0  0  0  0  0  0
   -0.7721   -1.9040    0.0000 N   0  0  0  0  0  0  0  0  0  0  0  0
   -1.0543   -2.6793    0.0000 C   0  0  0  0  0  0  0  0  0  0  0  0
   -1.8668   -2.8226    0.0000 C   0  0  0  0  0  0  0  0  0  0  0  0
   -2.1489   -3.5978    0.0000 O   0  0  0  0  0  0  0  0  0  0  0  0
   -2.9614   -3.7411    0.0000 H   0  0  0  0  0  0  0  0  0  0  0  0
   -2.0570   -2.0198    0.0000 H   0  0  0  0  0  0  0  0  0  0  0  0
   -2.6243   -2.4958    0.0000 H   0  0  0  0  0  0  0  0  0  0  0  0
   -0.8641   -3.4821    0.0000 H   0  0  0  0  0  0  0  0  0  0  0  0
   -0.2968   -3.0061    0.0000 H   0  0  0  0  0  0  0  0  0  0  0  0
    0.0403   -1.7608    0.0000 C   0  0  0  0  0  0  0  0  0  0  0  0
    0.3225   -0.9855    0.0000 C   0  0  0  0  0  0  0  0  0  0  0  0
   -0.2078   -0.3536    0.0000 H   0  0  0  0  0  0  0  0  0  0  0  0
    1.1350   -0.8423    0.0000 C   0  0  0  0  0  0  0  0  0  0  0  0
    1.4171   -0.0670    0.0000 H   0  0  0  0  0  0  0  0  0  0  0  0
    1.6653   -1.4743    0.0000 C   0  0  0  0  0  0  0  0  0  0  0  0
    2.4777   -1.3310    0.0000 C   0  0  0  0  0  0  0  0  0  0  0  0
    2.7599   -0.5558    0.0000 N   0  0  0  0  0  0  0  0  0  0  0  0
    3.5724   -0.4125    0.0000 C   0  0  0  0  0  0  0  0  0  0  0  0
    4.1027   -1.0445    0.0000 C   0  0  0  0  0  0  0  0  0  0  0  0
    4.6330   -0.4125    0.0000 C   0  0  0  0  0  0  0  0  0  0  0  0
    5.4454   -0.5558    0.0000 O   0  0  0  0  0  0  0  0  0  0  0  0
    4.3508    0.3627    0.0000 N   0  0  0  0  0  0  0  0  0  0  0  0
    3.5383    0.5060    0.0000 C   0  0  0  0  0  0  0  0  0  0  0  0
    3.0080   -0.1260    0.0000 C   0  0  0  0  0  0  0  0  0  0  0  0
    2.7259    0.6493    0.0000 H   0  0  0  0  0  0  0  0  0  0  0  0
    2.1956    0.0173    0.0000 N   0  0  0  0  0  0  0  0  0  0  0  0
    1.9134    0.7925    0.0000 C   0  0  0  0  0  0  0  0  0  0  0  0
    1.1009    0.9358    0.0000 H   0  0  0  0  0  0  0  0  0  0  0  0
    2.4437    1.4245    0.0000 C   0  0  0  0  0  0  0  0  0  0  0  0
    2.1615    2.1998    0.0000 C   0  0  0  0  0  0  0  0  0  0  0  0
    2.6918    2.8317    0.0000 C   0  0  0  0  0  0  0  0  0  0  0  0
    3.5043    2.6885    0.0000 C   0  0  0  0  0  0  0  0  0  0  0  0
    3.7865    1.9132    0.0000 C   0  0  0  0  0  0  0  0  0  0  0  0
    4.5989    1.7700    0.0000 H   0  0  0  0  0  0  0  0  0  0  0  0
    3.2562    1.2813    0.0000 C   0  0  0  0  0  0  0  0  0  0  0  0
    4.0346    3.3205    0.0000 H   0  0  0  0  0  0  0  0  0  0  0  0
    2.4097    3.6070    0.0000 H   0  0  0  0  0  0  0  0  0  0  0  0
    1.3491    2.3430    0.0000 H   0  0  0  0  0  0  0  0  0  0  0  0
    4.8811    0.9947    0.0000 H   0  0  0  0  0  0  0  0  0  0  0  0
    3.3882   -1.4570    0.0000 C   0  0  0  0  0  0  0  0  0  0  0  0
    4.1027   -1.8695    0.0000 H   0  0  0  0  0  0  0  0  0  0  0  0
    3.6704   -0.6817    0.0000 H   0  0  0  0  0  0  0  0  0  0  0  0
    3.3882   -2.2820    0.0000 C   0  0  0  0  0  0  0  0  0  0  0  0
    2.7089   -2.7502    0.0000 H   0  0  0  0  0  0  0  0  0  0  0  0
    3.4211   -3.1063    0.0000 H   0  0  0  0  0  0  0  0  0  0  0  0
    4.1027   -2.6945    0.0000 O   0  0  0  0  0  0  0  0  0  0  0  0
    4.8171   -2.2820    0.0000 C   0  0  0  0  0  0  0  0  0  0  0  0
    5.5316   -2.6945    0.0000 C   0  0  0  0  0  0  0  0  0  0  0  0
    6.2461   -2.2820    0.0000 C   0  0  0  0  0  0  0  0  0  0  0  0
    6.2461   -1.4570    0.0000 C   0  0  0  0  0  0  0  0  0  0  0  0
    6.9605   -1.0445    0.0000 Cl  0  0  0  0  0  0  0  0  0  0  0  0
    5.5316   -1.0445    0.0000 C   0  0  0  0  0  0  0  0  0  0  0  0
    6.2074   -0.5713    0.0000 H   0  0  0  0  0  0  0  0  0  0  0  0
    4.8171   -1.4570    0.0000 C   0  0  0  0  0  0  0  0  0  0  0  0
    6.9605   -2.6945    0.0000 H   0  0  0  0  0  0  0  0  0  0  0  0
    5.5316   -3.5195    0.0000 H   0  0  0  0  0  0  0  0  0  0  0  0
    4.3422   -0.1160    0.0000 H   0  0  0  0  0  0  0  0  0  0  0  0
    3.2902   -1.1877    0.0000 H   0  0  0  0  0  0  0  0  0  0  0  0
    1.9538   -0.7312    0.0000 H   0  0  0  0  0  0  0  0  0  0  0  0
    2.1166   -2.0728    0.0000 H   0  0  0  0  0  0  0  0  0  0  0  0
    2.8661   -2.0589    0.0000 H   0  0  0  0  0  0  0  0  0  0  0  0
    1.3831   -2.2495    0.0000 C   0  0  0  0  0  0  0  0  0  0  0  0
    1.5514   -3.0572    0.0000 H   0  0  0  0  0  0  0  0  0  0  0  0
    0.5706   -2.3928    0.0000 N   0  0  0  0  0  0  0  0  0  0  0  0
   -0.6705   -0.7418    0.0000 H   0  0  0  0  0  0  0  0  0  0  0  0
   -1.8327   -0.6401    0.0000 H   0  0  0  0  0  0  0  0  0  0  0  0
   -1.9344   -1.8024    0.0000 H   0  0  0  0  0  0  0  0  0  0  0  0
  1  2  1  0  0  0  0
  2  3  1  0  0  0  0
  3  4  1  0  0  0  0
  4  5  1  0  0  0  0
  5  6  1  0  0  0  0
  4  7  1  0  0  0  0
  4  8  1  0  0  0  0
  3  9  1  0  0  0  0
  3 10  1  0  0  0  0
  2 11  1  0  0  0  0
 11 12  2  0  0  0  0
 12 13  1  0  0  0  0
 12 14  1  0  0  0  0
 14 15  1  0  0  0  0
 14 16  2  0  0  0  0
 16 17  1  0  0  0  0
 17 18  1  0  0  0  0
 18 19  1  0  0  0  0
 19 20  1  0  0  0  0
 20 21  1  0  0  0  0
 21 22  2  0  0  0  0
 21 23  1  0  0  0  0
 23 24  1  0  0  0  0
 24 25  2  0  0  0  0
 25 26  1  0  0  0  0
 25 27  1  0  0  0  0
 27 28  2  0  0  0  0
 28 29  1  0  0  0  0
 28 30  1  0  0  0  0
 30 31  2  0  0  0  0
 31 32  1  0  0  0  0
 32 33  2  0  0  0  0
 33 34  1  0  0  0  0
 34 35  1  0  0  0  0
 34 36  2  0  0  0  0
 24 36  1  0  0  0  0
 30 36  1  0  0  0  0
 33 37  1  0  0  0  0
 32 38  1  0  0  0  0
 31 39  1  0  0  0  0
 23 40  1  0  0  0  0
 20 41  1  0  0  0  0
 41 42  1  0  0  0  0
 41 43  1  0  0  0  0
 41 44  1  0  0  0  0
 44 45  1  0  0  0  0
 44 46  1  0  0  0  0
 44 47  1  0  0  0  0
 47 48  1  0  0  0  0
 48 49  2  0  0  0  0
 49 50  1  0  0  0  0
 50 51  2  0  0  0  0
 51 52  1  0  0  0  0
 51 53  1  0  0  0  0
 53 54  1  0  0  0  0
 53 55  2  0  0  0  0
 20 55  1  0  0  0  0
 48 55  1  0  0  0  0
 50 56  1  0  0  0  0
 49 57  1  0  0  0  0
 19 58  1  0  0  0  0
 19 59  1  0  0  0  0
 18 60  1  0  0  0  0
 17 61  1  0  0  0  0
 17 62  1  0  0  0  0
 16 63  1  0  0  0  0
 63 64  1  0  0  0  0
 63 65  2  0  0  0  0
 11 65  1  0  0  0  0
  1 66  1  0  0  0  0
  1 67  1  0  0  0  0
  1 68  1  0  0  0  0
M  END
> <Potency>
4.3567734690309

> <pIC50>
5.360835020671885

> <Outcome>
Active

> <is_active>
1

$$$$

  Mrv1921 08232120312D          

 46 49  0  0  0  0            999 V2000
    2.8579   -5.7750    0.0000 C   0  0  0  0  0  0  0  0  0  0  0  0
    2.1434   -5.3625    0.0000 S   0  0  0  0  0  0  0  0  0  0  0  0
    2.5559   -4.6480    0.0000 O   0  0  0  0  0  0  0  0  0  0  0  0
    1.7309   -6.0770    0.0000 O   0  0  0  0  0  0  0  0  0  0  0  0
    1.4289   -4.9500    0.0000 N   0  0  0  0  0  0  0  0  0  0  0  0
    0.7145   -5.3625    0.0000 C   0  0  0  0  0  0  0  0  0  0  0  0
    0.3442   -6.0997    0.0000 H   0  0  0  0  0  0  0  0  0  0  0  0
    1.0847   -6.0997    0.0000 H   0  0  0  0  0  0  0  0  0  0  0  0
    0.0000   -4.9500    0.0000 C   0  0  0  0  0  0  0  0  0  0  0  0
   -0.7145   -5.3625    0.0000 C   0  0  0  0  0  0  0  0  0  0  0  0
   -1.4289   -4.9500    0.0000 C   0  0  0  0  0  0  0  0  0  0  0  0
   -2.1434   -5.3625    0.0000 F   0  0  0  0  0  0  0  0  0  0  0  0
   -1.4289   -4.1250    0.0000 C   0  0  0  0  0  0  0  0  0  0  0  0
   -2.1434   -3.7125    0.0000 Cl  0  0  0  0  0  0  0  0  0  0  0  0
   -0.7145   -3.7125    0.0000 C   0  0  0  0  0  0  0  0  0  0  0  0
   -0.7145   -2.8875    0.0000 H   0  0  0  0  0  0  0  0  0  0  0  0
    0.0000   -4.1250    0.0000 C   0  0  0  0  0  0  0  0  0  0  0  0
    0.7145   -3.7125    0.0000 C   0  0  0  0  0  0  0  0  0  0  0  0
    0.7145   -2.8875    0.0000 C   0  0  0  0  0  0  0  0  0  0  0  0
    0.0000   -2.4750    0.0000 O   0  0  0  0  0  0  0  0  0  0  0  0
    1.4289   -2.4750    0.0000 N   0  0  0  0  0  0  0  0  0  0  0  0
    1.4289   -1.6500    0.0000 C   0  0  0  0  0  0  0  0  0  0  0  0
    0.7145   -1.2375    0.0000 C   0  0  0  0  0  0  0  0  0  0  0  0
    0.0000   -1.6500    0.0000 H   0  0  0  0  0  0  0  0  0  0  0  0
    0.7145   -0.4125    0.0000 N   0  0  0  0  0  0  0  0  0  0  0  0
    1.4289    0.0000    0.0000 C   0  0  0  0  0  0  0  0  0  0  0  0
    1.4289    0.8250    0.0000 H   0  0  0  0  0  0  0  0  0  0  0  0
    2.1434   -0.4125    0.0000 C   0  0  0  0  0  0  0  0  0  0  0  0
    2.8579    0.0000    0.0000 C   0  0  0  0  0  0  0  0  0  0  0  0
    3.5724   -0.4125    0.0000 C   0  0  0  0  0  0  0  0  0  0  0  0
    3.5724   -1.2375    0.0000 C   0  0  0  0  0  0  0  0  0  0  0  0
    2.8579   -1.6500    0.0000 C   0  0  0  0  0  0  0  0  0  0  0  0
    2.8579   -2.4750    0.0000 H   0  0  0  0  0  0  0  0  0  0  0  0
    2.1434   -1.2375    0.0000 C   0  0  0  0  0  0  0  0  0  0  0  0
    4.2868   -1.6500    0.0000 H   0  0  0  0  0  0  0  0  0  0  0  0
    4.2868   -0.0000    0.0000 H   0  0  0  0  0  0  0  0  0  0  0  0
    2.8579    0.8250    0.0000 H   0  0  0  0  0  0  0  0  0  0  0  0
    2.2539   -2.4750    0.0000 H   0  0  0  0  0  0  0  0  0  0  0  0
    1.4289   -3.3000    0.0000 H   0  0  0  0  0  0  0  0  0  0  0  0
    1.4289   -4.1250    0.0000 C   0  0  0  0  0  0  0  0  0  0  0  0
    2.2042   -4.4072    0.0000 H   0  0  0  0  0  0  0  0  0  0  0  0
    2.2042   -3.8428    0.0000 H   0  0  0  0  0  0  0  0  0  0  0  0
   -0.7145   -6.1875    0.0000 H   0  0  0  0  0  0  0  0  0  0  0  0
    2.4454   -6.4895    0.0000 H   0  0  0  0  0  0  0  0  0  0  0  0
    3.5724   -6.1875    0.0000 H   0  0  0  0  0  0  0  0  0  0  0  0
    3.2704   -5.0605    0.0000 H   0  0  0  0  0  0  0  0  0  0  0  0
  1  2  1  0  0  0  0
  2  3  2  0  0  0  0
  2  4  2  0  0  0  0
  2  5  1  0  0  0  0
  5  6  1  0  0  0  0
  6  7  1  0  0  0  0
  6  8  1  0  0  0  0
  6  9  1  0  0  0  0
  9 10  2  0  0  0  0
 10 11  1  0  0  0  0
 11 12  1  0  0  0  0
 11 13  2  0  0  0  0
 13 14  1  0  0  0  0
 13 15  1  0  0  0  0
 15 16  1  0  0  0  0
 15 17  2  0  0  0  0
  9 17  1  0  0  0  0
 17 18  1  0  0  0  0
 18 19  1  0  0  0  0
 19 20  2  0  0  0  0
 19 21  1  0  0  0  0
 21 22  1  0  0  0  0
 22 23  2  0  0  0  0
 23 24  1  0  0  0  0
 23 25  1  0  0  0  0
 25 26  2  0  0  0  0
 26 27  1  0  0  0  0
 26 28  1  0  0  0  0
 28 29  2  0  0  0  0
 29 30  1  0  0  0  0
 30 31  2  0  0  0  0
 31 32  1  0  0  0  0
 32 33  1  0  0  0  0
 32 34  2  0  0  0  0
 22 34  1  0  0  0  0
 28 34  1  0  0  0  0
 31 35  1  0  0  0  0
 30 36  1  0  0  0  0
 29 37  1  0  0  0  0
 21 38  1  0  0  0  0
 18 39  1  0  0  0  0
 18 40  1  0  0  0  0
  5 40  1  0  0  0  0
 40 41  1  0  0  0  0
 40 42  1  0  0  0  0
 10 43  1  0  0  0  0
  1 44  1  0  0  0  0
  1 45  1  0  0  0  0
  1 46  1  0  0  0  0
M  END
> <Potency>
0.257583230692998

> <pIC50>
6.589082414039538

> <Outcome>
Active

> <is_active>
1

$$$$

  Mrv1921 08232120312D          

 51 55  0  0  0  0            999 V2000
    0.7145   -2.8875    0.0000 O   0  0  0  0  0  0  0  0  0  0  0  0
    1.4289   -2.4750    0.0000 C   0  0  0  0  0  0  0  0  0  0  0  0
    2.1434   -2.8875    0.0000 N   0  0  0  0  0  0  0  0  0  0  0  0
    2.1434   -3.7125    0.0000 C   0  0  0  0  0  0  0  0  0  0  0  0
    2.8579   -4.1250    0.0000 C   0  0  0  0  0  0  0  0  0  0  0  0
    3.5724   -3.7125    0.0000 H   0  0  0  0  0  0  0  0  0  0  0  0
    2.8579   -4.9500    0.0000 N   0  0  0  0  0  0  0  0  0  0  0  0
    2.1434   -5.3625    0.0000 C   0  0  0  0  0  0  0  0  0  0  0  0
    2.1434   -6.1875    0.0000 H   0  0  0  0  0  0  0  0  0  0  0  0
    1.4289   -4.9500    0.0000 C   0  0  0  0  0  0  0  0  0  0  0  0
    0.7145   -5.3625    0.0000 C   0  0  0  0  0  0  0  0  0  0  0  0
    0.0000   -4.9500    0.0000 C   0  0  0  0  0  0  0  0  0  0  0  0
    0.0000   -4.1250    0.0000 C   0  0  0  0  0  0  0  0  0  0  0  0
    0.7145   -3.7125    0.0000 C   0  0  0  0  0  0  0  0  0  0  0  0
    1.4289   -3.3000    0.0000 H   0  0  0  0  0  0  0  0  0  0  0  0
    1.4289   -4.1250    0.0000 C   0  0  0  0  0  0  0  0  0  0  0  0
   -0.7145   -3.7125    0.0000 H   0  0  0  0  0  0  0  0  0  0  0  0
   -0.7145   -5.3625    0.0000 H   0  0  0  0  0  0  0  0  0  0  0  0
    0.7145   -6.1875    0.0000 H   0  0  0  0  0  0  0  0  0  0  0  0
    2.8579   -2.4750    0.0000 H   0  0  0  0  0  0  0  0  0  0  0  0
    1.4289   -1.6500    0.0000 C   0  0  0  0  0  0  0  0  0  0  0  0
    0.7145   -1.2375    0.0000 C   0  0  0  0  0  0  0  0  0  0  0  0
   -0.1091   -1.2855    0.0000 H   0  0  0  0  0  0  0  0  0  0  0  0
    0.2611   -1.9268    0.0000 H   0  0  0  0  0  0  0  0  0  0  0  0
    0.7145   -0.4125    0.0000 N   0  0  0  0  0  0  0  0  0  0  0  0
    0.0000    0.0000    0.0000 S   0  0  0  0  0  0  0  0  0  0  0  0
    0.4125    0.7145    0.0000 O   0  0  0  0  0  0  0  0  0  0  0  0
   -0.4125   -0.7145    0.0000 O   0  0  0  0  0  0  0  0  0  0  0  0
   -0.7145    0.4125    0.0000 C   0  0  0  0  0  0  0  0  0  0  0  0
   -1.5114    0.1990    0.0000 C   0  0  0  0  0  0  0  0  0  0  0  0
   -2.2258   -0.2135    0.0000 H   0  0  0  0  0  0  0  0  0  0  0  0
   -1.5114   -0.6260    0.0000 H   0  0  0  0  0  0  0  0  0  0  0  0
   -1.7249    0.9959    0.0000 O   0  0  0  0  0  0  0  0  0  0  0  0
   -0.9280    1.2094    0.0000 C   0  0  0  0  0  0  0  0  0  0  0  0
   -0.5712    1.9532    0.0000 H   0  0  0  0  0  0  0  0  0  0  0  0
   -1.2354    1.9750    0.0000 H   0  0  0  0  0  0  0  0  0  0  0  0
   -0.0600    0.9147    0.0000 H   0  0  0  0  0  0  0  0  0  0  0  0
    1.4289    0.0000    0.0000 C   0  0  0  0  0  0  0  0  0  0  0  0
    1.7992    0.7372    0.0000 H   0  0  0  0  0  0  0  0  0  0  0  0
    1.0587    0.7372    0.0000 H   0  0  0  0  0  0  0  0  0  0  0  0
    2.1434   -0.4125    0.0000 C   0  0  0  0  0  0  0  0  0  0  0  0
    2.8579    0.0000    0.0000 C   0  0  0  0  0  0  0  0  0  0  0  0
    3.5724   -0.4125    0.0000 C   0  0  0  0  0  0  0  0  0  0  0  0
    3.5724   -1.2375    0.0000 C   0  0  0  0  0  0  0  0  0  0  0  0
    4.2868   -1.6500    0.0000 Cl  0  0  0  0  0  0  0  0  0  0  0  0
    2.8579   -1.6500    0.0000 C   0  0  0  0  0  0  0  0  0  0  0  0
    2.8579   -0.8250    0.0000 H   0  0  0  0  0  0  0  0  0  0  0  0
    2.1434   -1.2375    0.0000 C   0  0  0  0  0  0  0  0  0  0  0  0
    4.2868   -0.0000    0.0000 H   0  0  0  0  0  0  0  0  0  0  0  0
    2.8579    0.8250    0.0000 H   0  0  0  0  0  0  0  0  0  0  0  0
    2.1434   -2.0625    0.0000 H   0  0  0  0  0  0  0  0  0  0  0  0
  1  2  2  0  0  0  0
  2  3  1  0  0  0  0
  3  4  1  0  0  0  0
  4  5  2  0  0  0  0
  5  6  1  0  0  0  0
  5  7  1  0  0  0  0
  7  8  2  0  0  0  0
  8  9  1  0  0  0  0
  8 10  1  0  0  0  0
 10 11  2  0  0  0  0
 11 12  1  0  0  0  0
 12 13  2  0  0  0  0
 13 14  1  0  0  0  0
 14 15  1  0  0  0  0
 14 16  2  0  0  0  0
  4 16  1  0  0  0  0
 10 16  1  0  0  0  0
 13 17  1  0  0  0  0
 12 18  1  0  0  0  0
 11 19  1  0  0  0  0
  3 20  1  0  0  0  0
  2 21  1  0  0  0  0
 21 22  1  0  0  0  0
 22 23  1  0  0  0  0
 22 24  1  0  0  0  0
 22 25  1  0  0  0  0
 25 26  1  0  0  0  0
 26 27  2  0  0  0  0
 26 28  2  0  0  0  0
 26 29  1  0  0  0  0
 29 30  1  0  0  0  0
 30 31  1  0  0  0  0
 30 32  1  0  0  0  0
 30 33  1  0  0  0  0
 33 34  1  0  0  0  0
 29 34  1  0  0  0  0
 34 35  1  0  0  0  0
 34 36  1  0  0  0  0
 29 37  1  0  0  0  0
 25 38  1  0  0  0  0
 38 39  1  0  0  0  0
 38 40  1  0  0  0  0
 38 41  1  0  0  0  0
 41 42  2  0  0  0  0
 42 43  1  0  0  0  0
 43 44  2  0  0  0  0
 44 45  1  0  0  0  0
 44 46  1  0  0  0  0
 46 47  1  0  0  0  0
 46 48  2  0  0  0  0
 21 48  1  0  0  0  0
 41 48  1  0  0  0  0
 43 49  1  0  0  0  0
 42 50  1  0  0  0  0
 21 51  1  0  0  0  0
M  END
> <Potency>
0.2459342424649

> <pIC50>
6.609180998393422

> <Outcome>
Active

> <is_active>
1

$$$$

  Mrv1921 08232120312D          

 49 52  0  0  0  0            999 V2000
    0.7145    1.2375    0.0000 C   0  0  0  0  0  0  0  0  0  0  0  0
    0.0000    0.8250    0.0000 C   0  0  0  0  0  0  0  0  0  0  0  0
    0.0000    0.0000    0.0000 O   0  0  0  0  0  0  0  0  0  0  0  0
   -0.7145   -0.4125    0.0000 C   0  0  0  0  0  0  0  0  0  0  0  0
   -1.4289    0.0000    0.0000 O   0  0  0  0  0  0  0  0  0  0  0  0
   -0.7145   -1.2375    0.0000 N   0  0  0  0  0  0  0  0  0  0  0  0
   -1.4289   -1.6500    0.0000 C   0  0  0  0  0  0  0  0  0  0  0  0
   -1.8823   -0.9607    0.0000 H   0  0  0  0  0  0  0  0  0  0  0  0
   -2.2525   -1.6020    0.0000 H   0  0  0  0  0  0  0  0  0  0  0  0
   -1.4289   -2.4750    0.0000 C   0  0  0  0  0  0  0  0  0  0  0  0
   -2.1434   -2.8875    0.0000 C   0  0  0  0  0  0  0  0  0  0  0  0
   -2.1434   -3.7125    0.0000 C   0  0  0  0  0  0  0  0  0  0  0  0
   -1.4289   -4.1250    0.0000 C   0  0  0  0  0  0  0  0  0  0  0  0
   -1.4289   -4.9500    0.0000 Cl  0  0  0  0  0  0  0  0  0  0  0  0
   -0.7145   -3.7125    0.0000 C   0  0  0  0  0  0  0  0  0  0  0  0
    0.0000   -4.1250    0.0000 H   0  0  0  0  0  0  0  0  0  0  0  0
   -0.7145   -2.8875    0.0000 C   0  0  0  0  0  0  0  0  0  0  0  0
    0.0000   -2.4750    0.0000 C   0  0  0  0  0  0  0  0  0  0  0  0
    0.7145   -2.8875    0.0000 C   0  0  0  0  0  0  0  0  0  0  0  0
    0.7145   -3.7125    0.0000 O   0  0  0  0  0  0  0  0  0  0  0  0
    1.4289   -2.4750    0.0000 N   0  0  0  0  0  0  0  0  0  0  0  0
    1.4289   -1.6500    0.0000 C   0  0  0  0  0  0  0  0  0  0  0  0
    0.7145   -1.2375    0.0000 C   0  0  0  0  0  0  0  0  0  0  0  0
    0.0000   -0.8250    0.0000 H   0  0  0  0  0  0  0  0  0  0  0  0
    0.7145   -0.4125    0.0000 N   0  0  0  0  0  0  0  0  0  0  0  0
    1.4289    0.0000    0.0000 C   0  0  0  0  0  0  0  0  0  0  0  0
    2.0123    0.5834    0.0000 H   0  0  0  0  0  0  0  0  0  0  0  0
    2.1434   -0.4125    0.0000 C   0  0  0  0  0  0  0  0  0  0  0  0
    2.8579    0.0000    0.0000 C   0  0  0  0  0  0  0  0  0  0  0  0
    3.5724   -0.4125    0.0000 C   0  0  0  0  0  0  0  0  0  0  0  0
    3.5724   -1.2375    0.0000 C   0  0  0  0  0  0  0  0  0  0  0  0
    2.8579   -1.6500    0.0000 C   0  0  0  0  0  0  0  0  0  0  0  0
    2.8579   -2.4750    0.0000 H   0  0  0  0  0  0  0  0  0  0  0  0
    2.1434   -1.2375    0.0000 C   0  0  0  0  0  0  0  0  0  0  0  0
    4.2868   -1.6500    0.0000 H   0  0  0  0  0  0  0  0  0  0  0  0
    4.2868   -0.0000    0.0000 H   0  0  0  0  0  0  0  0  0  0  0  0
    2.8579    0.8250    0.0000 H   0  0  0  0  0  0  0  0  0  0  0  0
    2.1434   -2.8875    0.0000 H   0  0  0  0  0  0  0  0  0  0  0  0
    0.7145   -2.0625    0.0000 H   0  0  0  0  0  0  0  0  0  0  0  0
    0.0000   -1.6500    0.0000 C   0  0  0  0  0  0  0  0  0  0  0  0
   -0.8125   -1.7933    0.0000 H   0  0  0  0  0  0  0  0  0  0  0  0
   -0.5303   -2.2820    0.0000 H   0  0  0  0  0  0  0  0  0  0  0  0
   -2.8579   -4.1250    0.0000 H   0  0  0  0  0  0  0  0  0  0  0  0
   -2.8579   -2.4750    0.0000 H   0  0  0  0  0  0  0  0  0  0  0  0
   -0.4533    1.5143    0.0000 H   0  0  0  0  0  0  0  0  0  0  0  0
   -0.8236    0.8730    0.0000 H   0  0  0  0  0  0  0  0  0  0  0  0
    1.1270    0.5230    0.0000 H   0  0  0  0  0  0  0  0  0  0  0  0
    1.4289    1.6500    0.0000 H   0  0  0  0  0  0  0  0  0  0  0  0
    0.3020    1.9520    0.0000 H   0  0  0  0  0  0  0  0  0  0  0  0
  1  2  1  0  0  0  0
  2  3  1  0  0  0  0
  3  4  1  0  0  0  0
  4  5  2  0  0  0  0
  4  6  1  0  0  0  0
  6  7  1  0  0  0  0
  7  8  1  0  0  0  0
  7  9  1  0  0  0  0
  7 10  1  0  0  0  0
 10 11  2  0  0  0  0
 11 12  1  0  0  0  0
 12 13  2  0  0  0  0
 13 14  1  0  0  0  0
 13 15  1  0  0  0  0
 15 16  1  0  0  0  0
 15 17  2  0  0  0  0
 10 17  1  0  0  0  0
 17 18  1  0  0  0  0
 18 19  1  0  0  0  0
 19 20  2  0  0  0  0
 19 21  1  0  0  0  0
 21 22  1  0  0  0  0
 22 23  2  0  0  0  0
 23 24  1  0  0  0  0
 23 25  1  0  0  0  0
 25 26  2  0  0  0  0
 26 27  1  0  0  0  0
 26 28  1  0  0  0  0
 28 29  2  0  0  0  0
 29 30  1  0  0  0  0
 30 31  2  0  0  0  0
 31 32  1  0  0  0  0
 32 33  1  0  0  0  0
 32 34  2  0  0  0  0
 22 34  1  0  0  0  0
 28 34  1  0  0  0  0
 31 35  1  0  0  0  0
 30 36  1  0  0  0  0
 29 37  1  0  0  0  0
 21 38  1  0  0  0  0
 18 39  1  0  0  0  0
 18 40  1  0  0  0  0
  6 40  1  0  0  0  0
 40 41  1  0  0  0  0
 40 42  1  0  0  0  0
 12 43  1  0  0  0  0
 11 44  1  0  0  0  0
  2 45  1  0  0  0  0
  2 46  1  0  0  0  0
  1 47  1  0  0  0  0
  1 48  1  0  0  0  0
  1 49  1  0  0  0  0
M  END
> <Potency>
0.236473466957296

> <pIC50>
6.626217581355246

> <Outcome>
Active

> <is_active>
1

$$$$

  Mrv1921 08232120312D          

 55 57  0  0  0  0            999 V2000
    7.1447    0.0000    0.0000 C   0  0  0  0  0  0  0  0  0  0  0  0
    7.8592    0.4125    0.0000 N   0  0  0  0  0  0  0  0  0  0  0  0
    7.8592    1.2375    0.0000 C   0  0  0  0  0  0  0  0  0  0  0  0
    8.6842    1.2375    0.0000 H   0  0  0  0  0  0  0  0  0  0  0  0
    7.8592    2.0625    0.0000 H   0  0  0  0  0  0  0  0  0  0  0  0
    7.0342    1.2375    0.0000 H   0  0  0  0  0  0  0  0  0  0  0  0
    8.5737    0.0000    0.0000 C   0  0  0  0  0  0  0  0  0  0  0  0
    8.5737   -0.8250    0.0000 O   0  0  0  0  0  0  0  0  0  0  0  0
    9.2881    0.4125    0.0000 C   0  0  0  0  0  0  0  0  0  0  0  0
   10.0026    0.0000    0.0000 O   0  0  0  0  0  0  0  0  0  0  0  0
   10.7171    0.4125    0.0000 C   0  0  0  0  0  0  0  0  0  0  0  0
   11.4315    0.0000    0.0000 C   0  0  0  0  0  0  0  0  0  0  0  0
   11.4315   -0.8250    0.0000 O   0  0  0  0  0  0  0  0  0  0  0  0
   12.1460    0.4125    0.0000 N   0  0  0  0  0  0  0  0  0  0  0  0
   12.8605    0.0000    0.0000 C   0  0  0  0  0  0  0  0  0  0  0  0
   13.5749    0.4125    0.0000 C   0  0  0  0  0  0  0  0  0  0  0  0
   13.5749    1.2375    0.0000 O   0  0  0  0  0  0  0  0  0  0  0  0
   14.2894    0.0000    0.0000 N   0  0  0  0  0  0  0  0  0  0  0  0
   15.0039    0.4125    0.0000 C   0  0  0  0  0  0  0  0  0  0  0  0
   15.0039    1.2375    0.0000 C   0  0  0  0  0  0  0  0  0  0  0  0
   14.2894    1.6500    0.0000 H   0  0  0  0  0  0  0  0  0  0  0  0
   15.7184    1.6500    0.0000 N   0  0  0  0  0  0  0  0  0  0  0  0
   16.4328    1.2375    0.0000 C   0  0  0  0  0  0  0  0  0  0  0  0
   17.1473    1.6500    0.0000 H   0  0  0  0  0  0  0  0  0  0  0  0
   16.4328    0.4125    0.0000 C   0  0  0  0  0  0  0  0  0  0  0  0
   17.1473    0.0000    0.0000 C   0  0  0  0  0  0  0  0  0  0  0  0
   17.1473   -0.8250    0.0000 C   0  0  0  0  0  0  0  0  0  0  0  0
   16.4328   -1.2375    0.0000 C   0  0  0  0  0  0  0  0  0  0  0  0
   15.7184   -0.8250    0.0000 C   0  0  0  0  0  0  0  0  0  0  0  0
   15.0039   -1.2375    0.0000 H   0  0  0  0  0  0  0  0  0  0  0  0
   15.7184    0.0000    0.0000 C   0  0  0  0  0  0  0  0  0  0  0  0
   16.4328   -2.0625    0.0000 H   0  0  0  0  0  0  0  0  0  0  0  0
   17.8618   -1.2375    0.0000 H   0  0  0  0  0  0  0  0  0  0  0  0
   17.8618    0.4125    0.0000 H   0  0  0  0  0  0  0  0  0  0  0  0
   14.2894   -0.8250    0.0000 H   0  0  0  0  0  0  0  0  0  0  0  0
   12.8605   -0.8250    0.0000 C   0  0  0  0  0  0  0  0  0  0  0  0
   13.5749   -1.2375    0.0000 C   0  0  0  0  0  0  0  0  0  0  0  0
   13.5749   -0.4125    0.0000 H   0  0  0  0  0  0  0  0  0  0  0  0
   13.5749   -2.0625    0.0000 C   0  0  0  0  0  0  0  0  0  0  0  0
   14.2894   -2.4750    0.0000 H   0  0  0  0  0  0  0  0  0  0  0  0
   12.8605   -2.4750    0.0000 C   0  0  0  0  0  0  0  0  0  0  0  0
   12.8605   -3.3000    0.0000 H   0  0  0  0  0  0  0  0  0  0  0  0
   12.1460   -2.0625    0.0000 C   0  0  0  0  0  0  0  0  0  0  0  0
   11.4315   -2.4750    0.0000 Cl  0  0  0  0  0  0  0  0  0  0  0  0
   12.1460   -1.2375    0.0000 C   0  0  0  0  0  0  0  0  0  0  0  0
   12.1460   -0.4125    0.0000 H   0  0  0  0  0  0  0  0  0  0  0  0
   12.8605    0.8250    0.0000 H   0  0  0  0  0  0  0  0  0  0  0  0
   12.1460    1.2375    0.0000 H   0  0  0  0  0  0  0  0  0  0  0  0
   11.0873    1.1497    0.0000 H   0  0  0  0  0  0  0  0  0  0  0  0
   10.3468    1.1497    0.0000 H   0  0  0  0  0  0  0  0  0  0  0  0
    9.6584    1.1497    0.0000 H   0  0  0  0  0  0  0  0  0  0  0  0
    8.9179    1.1497    0.0000 H   0  0  0  0  0  0  0  0  0  0  0  0
    6.7322    0.7145    0.0000 H   0  0  0  0  0  0  0  0  0  0  0  0
    6.4302   -0.4125    0.0000 H   0  0  0  0  0  0  0  0  0  0  0  0
    7.5572   -0.7145    0.0000 H   0  0  0  0  0  0  0  0  0  0  0  0
  1  2  1  0  0  0  0
  2  3  1  0  0  0  0
  3  4  1  0  0  0  0
  3  5  1  0  0  0  0
  3  6  1  0  0  0  0
  2  7  1  0  0  0  0
  7  8  2  0  0  0  0
  7  9  1  0  0  0  0
  9 10  1  0  0  0  0
 10 11  1  0  0  0  0
 11 12  1  0  0  0  0
 12 13  2  0  0  0  0
 12 14  1  0  0  0  0
 14 15  1  0  0  0  0
 15 16  1  0  0  0  0
 16 17  2  0  0  0  0
 16 18  1  0  0  0  0
 18 19  1  0  0  0  0
 19 20  2  0  0  0  0
 20 21  1  0  0  0  0
 20 22  1  0  0  0  0
 22 23  2  0  0  0  0
 23 24  1  0  0  0  0
 23 25  1  0  0  0  0
 25 26  2  0  0  0  0
 26 27  1  0  0  0  0
 27 28  2  0  0  0  0
 28 29  1  0  0  0  0
 29 30  1  0  0  0  0
 29 31  2  0  0  0  0
 19 31  1  0  0  0  0
 25 31  1  0  0  0  0
 28 32  1  0  0  0  0
 27 33  1  0  0  0  0
 26 34  1  0  0  0  0
 18 35  1  0  0  0  0
 15 36  1  0  0  0  0
 36 37  2  0  0  0  0
 37 38  1  0  0  0  0
 37 39  1  0  0  0  0
 39 40  1  0  0  0  0
 39 41  2  0  0  0  0
 41 42  1  0  0  0  0
 41 43  1  0  0  0  0
 43 44  1  0  0  0  0
 43 45  2  0  0  0  0
 36 45  1  0  0  0  0
 45 46  1  0  0  0  0
 15 47  1  0  0  0  0
 14 48  1  0  0  0  0
 11 49  1  0  0  0  0
 11 50  1  0  0  0  0
  9 51  1  0  0  0  0
  9 52  1  0  0  0  0
  1 53  1  0  0  0  0
  1 54  1  0  0  0  0
  1 55  1  0  0  0  0
M  END
> <Potency>
5.40617223103952

> <pIC50>
5.267110122566523

> <Outcome>
Active

> <is_active>
1

$$$$

  Mrv1921 08232120312D          

 51 55  0  0  0  0            999 V2000
   11.1781    0.0616    0.0000 C   0  0  0  0  0  0  0  0  0  0  0  0
   10.4636   -0.3509    0.0000 C   0  0  0  0  0  0  0  0  0  0  0  0
   10.4636   -1.1759    0.0000 C   0  0  0  0  0  0  0  0  0  0  0  0
   11.1781   -1.5884    0.0000 H   0  0  0  0  0  0  0  0  0  0  0  0
    9.7492   -1.5884    0.0000 C   0  0  0  0  0  0  0  0  0  0  0  0
    9.7492   -2.4134    0.0000 H   0  0  0  0  0  0  0  0  0  0  0  0
    9.0347   -1.1759    0.0000 C   0  0  0  0  0  0  0  0  0  0  0  0
    8.2501   -1.4308    0.0000 N   0  0  0  0  0  0  0  0  0  0  0  0
    7.7652   -0.7634    0.0000 C   0  0  0  0  0  0  0  0  0  0  0  0
    6.9402   -0.7634    0.0000 N   0  0  0  0  0  0  0  0  0  0  0  0
    6.5277   -1.4779    0.0000 C   0  0  0  0  0  0  0  0  0  0  0  0
    6.9402   -2.1923    0.0000 C   0  0  0  0  0  0  0  0  0  0  0  0
    7.7652   -2.1923    0.0000 H   0  0  0  0  0  0  0  0  0  0  0  0
    6.5277   -2.9068    0.0000 C   0  0  0  0  0  0  0  0  0  0  0  0
    6.9402   -3.6213    0.0000 Cl  0  0  0  0  0  0  0  0  0  0  0  0
    5.7027   -2.9068    0.0000 C   0  0  0  0  0  0  0  0  0  0  0  0
    5.2902   -3.6213    0.0000 H   0  0  0  0  0  0  0  0  0  0  0  0
    5.2902   -2.1923    0.0000 C   0  0  0  0  0  0  0  0  0  0  0  0
    4.4652   -2.1923    0.0000 C   0  0  0  0  0  0  0  0  0  0  0  0
    4.0527   -2.9068    0.0000 C   0  0  0  0  0  0  0  0  0  0  0  0
    4.4652   -3.6213    0.0000 O   0  0  0  0  0  0  0  0  0  0  0  0
    3.2277   -2.9068    0.0000 N   0  0  0  0  0  0  0  0  0  0  0  0
    2.8152   -3.6213    0.0000 C   0  0  0  0  0  0  0  0  0  0  0  0
    3.2277   -4.3357    0.0000 C   0  0  0  0  0  0  0  0  0  0  0  0
    4.0527   -4.3357    0.0000 H   0  0  0  0  0  0  0  0  0  0  0  0
    2.8152   -5.0502    0.0000 N   0  0  0  0  0  0  0  0  0  0  0  0
    1.9902   -5.0502    0.0000 C   0  0  0  0  0  0  0  0  0  0  0  0
    1.5777   -5.7647    0.0000 H   0  0  0  0  0  0  0  0  0  0  0  0
    1.5777   -4.3357    0.0000 C   0  0  0  0  0  0  0  0  0  0  0  0
    0.7527   -4.3357    0.0000 C   0  0  0  0  0  0  0  0  0  0  0  0
    0.3402   -3.6213    0.0000 C   0  0  0  0  0  0  0  0  0  0  0  0
    0.7527   -2.9068    0.0000 C   0  0  0  0  0  0  0  0  0  0  0  0
    1.5777   -2.9068    0.0000 C   0  0  0  0  0  0  0  0  0  0  0  0
    1.9902   -2.1923    0.0000 H   0  0  0  0  0  0  0  0  0  0  0  0
    1.9902   -3.6213    0.0000 C   0  0  0  0  0  0  0  0  0  0  0  0
    0.3402   -2.1923    0.0000 H   0  0  0  0  0  0  0  0  0  0  0  0
   -0.4848   -3.6213    0.0000 H   0  0  0  0  0  0  0  0  0  0  0  0
    0.3402   -5.0502    0.0000 H   0  0  0  0  0  0  0  0  0  0  0  0
    2.8152   -2.1923    0.0000 H   0  0  0  0  0  0  0  0  0  0  0  0
    4.4172   -1.3687    0.0000 H   0  0  0  0  0  0  0  0  0  0  0  0
    3.7759   -1.7390    0.0000 H   0  0  0  0  0  0  0  0  0  0  0  0
    5.7027   -1.4779    0.0000 C   0  0  0  0  0  0  0  0  0  0  0  0
    5.2902   -0.7634    0.0000 H   0  0  0  0  0  0  0  0  0  0  0  0
    6.5277   -0.0489    0.0000 H   0  0  0  0  0  0  0  0  0  0  0  0
    8.2501   -0.0960    0.0000 S   0  0  0  0  0  0  0  0  0  0  0  0
    9.0347   -0.3509    0.0000 C   0  0  0  0  0  0  0  0  0  0  0  0
    9.7492    0.0616    0.0000 C   0  0  0  0  0  0  0  0  0  0  0  0
    9.7492    0.8866    0.0000 H   0  0  0  0  0  0  0  0  0  0  0  0
   11.5906   -0.6529    0.0000 H   0  0  0  0  0  0  0  0  0  0  0  0
   11.8926    0.4741    0.0000 H   0  0  0  0  0  0  0  0  0  0  0  0
   10.7656    0.7761    0.0000 H   0  0  0  0  0  0  0  0  0  0  0  0
  1  2  1  0  0  0  0
  2  3  2  0  0  0  0
  3  4  1  0  0  0  0
  3  5  1  0  0  0  0
  5  6  1  0  0  0  0
  5  7  2  0  0  0  0
  7  8  1  0  0  0  0
  8  9  2  0  0  0  0
  9 10  1  0  0  0  0
 10 11  1  0  0  0  0
 11 12  2  0  0  0  0
 12 13  1  0  0  0  0
 12 14  1  0  0  0  0
 14 15  1  0  0  0  0
 14 16  2  0  0  0  0
 16 17  1  0  0  0  0
 16 18  1  0  0  0  0
 18 19  1  0  0  0  0
 19 20  1  0  0  0  0
 20 21  2  0  0  0  0
 20 22  1  0  0  0  0
 22 23  1  0  0  0  0
 23 24  2  0  0  0  0
 24 25  1  0  0  0  0
 24 26  1  0  0  0  0
 26 27  2  0  0  0  0
 27 28  1  0  0  0  0
 27 29  1  0  0  0  0
 29 30  2  0  0  0  0
 30 31  1  0  0  0  0
 31 32  2  0  0  0  0
 32 33  1  0  0  0  0
 33 34  1  0  0  0  0
 33 35  2  0  0  0  0
 23 35  1  0  0  0  0
 29 35  1  0  0  0  0
 32 36  1  0  0  0  0
 31 37  1  0  0  0  0
 30 38  1  0  0  0  0
 22 39  1  0  0  0  0
 19 40  1  0  0  0  0
 19 41  1  0  0  0  0
 18 42  2  0  0  0  0
 11 42  1  0  0  0  0
 42 43  1  0  0  0  0
 10 44  1  0  0  0  0
  9 45  1  0  0  0  0
 45 46  1  0  0  0  0
  7 46  1  0  0  0  0
 46 47  2  0  0  0  0
  2 47  1  0  0  0  0
 47 48  1  0  0  0  0
  1 49  1  0  0  0  0
  1 50  1  0  0  0  0
  1 51  1  0  0  0  0
M  END
> <Potency>
3.21187856845676

> <pIC50>
5.4932408824612455

> <Outcome>
Active

> <is_active>
1

$$$$

  Mrv1921 08232120312D          

 51 54  0  0  0  0            999 V2000
   -1.4289    0.0000    0.0000 C   0  0  0  0  0  0  0  0  0  0  0  0
   -0.7145   -0.4125    0.0000 O   0  0  0  0  0  0  0  0  0  0  0  0
   -0.7145   -1.2375    0.0000 C   0  0  0  0  0  0  0  0  0  0  0  0
   -1.4289   -1.6500    0.0000 O   0  0  0  0  0  0  0  0  0  0  0  0
    0.0000   -1.6500    0.0000 C   0  0  0  0  0  0  0  0  0  0  0  0
    0.0000   -2.4750    0.0000 C   0  0  0  0  0  0  0  0  0  0  0  0
    0.7145   -2.8875    0.0000 C   0  0  0  0  0  0  0  0  0  0  0  0
    0.7145   -3.7125    0.0000 O   0  0  0  0  0  0  0  0  0  0  0  0
    1.4289   -2.4750    0.0000 N   0  0  0  0  0  0  0  0  0  0  0  0
    2.1434   -2.8875    0.0000 C   0  0  0  0  0  0  0  0  0  0  0  0
    2.8579   -2.4750    0.0000 O   0  0  0  0  0  0  0  0  0  0  0  0
    2.1434   -3.7125    0.0000 C   0  0  0  0  0  0  0  0  0  0  0  0
    1.4289   -4.1250    0.0000 C   0  0  0  0  0  0  0  0  0  0  0  0
    1.4289   -3.3000    0.0000 H   0  0  0  0  0  0  0  0  0  0  0  0
    0.7145   -4.5375    0.0000 H   0  0  0  0  0  0  0  0  0  0  0  0
    1.4289   -4.9500    0.0000 C   0  0  0  0  0  0  0  0  0  0  0  0
    0.7970   -5.4803    0.0000 H   0  0  0  0  0  0  0  0  0  0  0  0
    1.2857   -5.7625    0.0000 H   0  0  0  0  0  0  0  0  0  0  0  0
    2.1434   -5.3625    0.0000 O   0  0  0  0  0  0  0  0  0  0  0  0
    2.8579   -4.9500    0.0000 C   0  0  0  0  0  0  0  0  0  0  0  0
    3.5724   -5.3625    0.0000 C   0  0  0  0  0  0  0  0  0  0  0  0
    4.2868   -4.9500    0.0000 C   0  0  0  0  0  0  0  0  0  0  0  0
    4.2868   -4.1250    0.0000 C   0  0  0  0  0  0  0  0  0  0  0  0
    5.0013   -3.7125    0.0000 Cl  0  0  0  0  0  0  0  0  0  0  0  0
    3.5724   -3.7125    0.0000 C   0  0  0  0  0  0  0  0  0  0  0  0
    3.9849   -2.9980    0.0000 H   0  0  0  0  0  0  0  0  0  0  0  0
    2.8579   -4.1250    0.0000 C   0  0  0  0  0  0  0  0  0  0  0  0
    5.0013   -5.3625    0.0000 H   0  0  0  0  0  0  0  0  0  0  0  0
    3.5724   -6.1875    0.0000 H   0  0  0  0  0  0  0  0  0  0  0  0
    2.8579   -3.3000    0.0000 H   0  0  0  0  0  0  0  0  0  0  0  0
    1.4289   -1.6500    0.0000 C   0  0  0  0  0  0  0  0  0  0  0  0
    0.7145   -1.2375    0.0000 C   0  0  0  0  0  0  0  0  0  0  0  0
    0.7145   -2.0625    0.0000 H   0  0  0  0  0  0  0  0  0  0  0  0
    0.7145   -0.4125    0.0000 N   0  0  0  0  0  0  0  0  0  0  0  0
    1.4289    0.0000    0.0000 C   0  0  0  0  0  0  0  0  0  0  0  0
    1.4289    0.8250    0.0000 H   0  0  0  0  0  0  0  0  0  0  0  0
    2.1434   -0.4125    0.0000 C   0  0  0  0  0  0  0  0  0  0  0  0
    2.8579    0.0000    0.0000 C   0  0  0  0  0  0  0  0  0  0  0  0
    3.5724   -0.4125    0.0000 C   0  0  0  0  0  0  0  0  0  0  0  0
    3.5724   -1.2375    0.0000 C   0  0  0  0  0  0  0  0  0  0  0  0
    2.8579   -1.6500    0.0000 C   0  0  0  0  0  0  0  0  0  0  0  0
    2.1434   -2.0625    0.0000 H   0  0  0  0  0  0  0  0  0  0  0  0
    2.1434   -1.2375    0.0000 C   0  0  0  0  0  0  0  0  0  0  0  0
    4.2868   -1.6500    0.0000 H   0  0  0  0  0  0  0  0  0  0  0  0
    4.2868   -0.0000    0.0000 H   0  0  0  0  0  0  0  0  0  0  0  0
    2.8579    0.8250    0.0000 H   0  0  0  0  0  0  0  0  0  0  0  0
   -0.7145   -2.8875    0.0000 H   0  0  0  0  0  0  0  0  0  0  0  0
    0.0000   -0.8250    0.0000 H   0  0  0  0  0  0  0  0  0  0  0  0
   -1.0164    0.7145    0.0000 H   0  0  0  0  0  0  0  0  0  0  0  0
   -2.1434    0.4125    0.0000 H   0  0  0  0  0  0  0  0  0  0  0  0
   -1.8414   -0.7145    0.0000 H   0  0  0  0  0  0  0  0  0  0  0  0
  1  2  1  0  0  0  0
  2  3  1  0  0  0  0
  3  4  2  0  0  0  0
  3  5  1  0  0  0  0
  5  6  2  0  0  0  0
  6  7  1  0  0  0  0
  7  8  2  0  0  0  0
  7  9  1  0  0  0  0
  9 10  1  0  0  0  0
 10 11  2  0  0  0  0
 10 12  1  0  0  0  0
 12 13  1  0  0  0  0
 13 14  1  0  0  0  0
 13 15  1  0  0  0  0
 13 16  1  0  0  0  0
 16 17  1  0  0  0  0
 16 18  1  0  0  0  0
 16 19  1  0  0  0  0
 19 20  1  0  0  0  0
 20 21  2  0  0  0  0
 21 22  1  0  0  0  0
 22 23  2  0  0  0  0
 23 24  1  0  0  0  0
 23 25  1  0  0  0  0
 25 26  1  0  0  0  0
 25 27  2  0  0  0  0
 12 27  1  0  0  0  0
 20 27  1  0  0  0  0
 22 28  1  0  0  0  0
 21 29  1  0  0  0  0
 12 30  1  0  0  0  0
  9 31  1  0  0  0  0
 31 32  2  0  0  0  0
 32 33  1  0  0  0  0
 32 34  1  0  0  0  0
 34 35  2  0  0  0  0
 35 36  1  0  0  0  0
 35 37  1  0  0  0  0
 37 38  2  0  0  0  0
 38 39  1  0  0  0  0
 39 40  2  0  0  0  0
 40 41  1  0  0  0  0
 41 42  1  0  0  0  0
 41 43  2  0  0  0  0
 31 43  1  0  0  0  0
 37 43  1  0  0  0  0
 40 44  1  0  0  0  0
 39 45  1  0  0  0  0
 38 46  1  0  0  0  0
  6 47  1  0  0  0  0
  5 48  1  4  0  0  0
  1 49  1  0  0  0  0
  1 50  1  0  0  0  0
  1 51  1  0  0  0  0
M  END
> <Potency>
4.35751379868075

> <pIC50>
5.360761228961189

> <Outcome>
Active

> <is_active>
1

$$$$

  Mrv1921 08232120312D          

 65 70  0  0  0  0            999 V2000
    3.4744   -0.6817    0.0000 O   0  0  0  0  0  0  0  0  0  0  0  0
    3.7565   -1.4570    0.0000 C   0  0  0  0  0  0  0  0  0  0  0  0
    4.5690   -1.6002    0.0000 C   0  0  0  0  0  0  0  0  0  0  0  0
    5.0993   -0.9683    0.0000 C   0  0  0  0  0  0  0  0  0  0  0  0
    5.6296   -1.6002    0.0000 C   0  0  0  0  0  0  0  0  0  0  0  0
    6.4421   -1.4570    0.0000 O   0  0  0  0  0  0  0  0  0  0  0  0
    5.3474   -2.3755    0.0000 N   0  0  0  0  0  0  0  0  0  0  0  0
    5.8777   -3.0075    0.0000 C   0  0  0  0  0  0  0  0  0  0  0  0
    6.6902   -2.8642    0.0000 C   0  0  0  0  0  0  0  0  0  0  0  0
    6.9724   -2.0890    0.0000 H   0  0  0  0  0  0  0  0  0  0  0  0
    7.2205   -3.4962    0.0000 N   0  0  0  0  0  0  0  0  0  0  0  0
    6.9383   -4.2715    0.0000 C   0  0  0  0  0  0  0  0  0  0  0  0
    7.4686   -4.9034    0.0000 H   0  0  0  0  0  0  0  0  0  0  0  0
    6.1259   -4.4147    0.0000 C   0  0  0  0  0  0  0  0  0  0  0  0
    5.8437   -5.1900    0.0000 C   0  0  0  0  0  0  0  0  0  0  0  0
    5.0312   -5.3332    0.0000 C   0  0  0  0  0  0  0  0  0  0  0  0
    4.5009   -4.7012    0.0000 C   0  0  0  0  0  0  0  0  0  0  0  0
    4.7831   -3.9260    0.0000 C   0  0  0  0  0  0  0  0  0  0  0  0
    3.9995   -3.6679    0.0000 H   0  0  0  0  0  0  0  0  0  0  0  0
    5.5956   -3.7827    0.0000 C   0  0  0  0  0  0  0  0  0  0  0  0
    3.6885   -4.8445    0.0000 H   0  0  0  0  0  0  0  0  0  0  0  0
    4.7491   -6.1085    0.0000 H   0  0  0  0  0  0  0  0  0  0  0  0
    6.3740   -5.8219    0.0000 H   0  0  0  0  0  0  0  0  0  0  0  0
    5.0177   -3.1318    0.0000 H   0  0  0  0  0  0  0  0  0  0  0  0
    4.3848   -0.5558    0.0000 C   0  0  0  0  0  0  0  0  0  0  0  0
    4.2265   -1.3654    0.0000 H   0  0  0  0  0  0  0  0  0  0  0  0
    5.0993   -0.1433    0.0000 H   0  0  0  0  0  0  0  0  0  0  0  0
    4.3848    0.2692    0.0000 C   0  0  0  0  0  0  0  0  0  0  0  0
    3.9315    0.9585    0.0000 H   0  0  0  0  0  0  0  0  0  0  0  0
    3.5612    0.3172    0.0000 H   0  0  0  0  0  0  0  0  0  0  0  0
    5.0993    0.6817    0.0000 O   0  0  0  0  0  0  0  0  0  0  0  0
    5.8138    0.2692    0.0000 C   0  0  0  0  0  0  0  0  0  0  0  0
    6.5282    0.6817    0.0000 C   0  0  0  0  0  0  0  0  0  0  0  0
    7.2427    0.2692    0.0000 C   0  0  0  0  0  0  0  0  0  0  0  0
    7.2427   -0.5558    0.0000 C   0  0  0  0  0  0  0  0  0  0  0  0
    7.9572   -0.9683    0.0000 Cl  0  0  0  0  0  0  0  0  0  0  0  0
    6.5282   -0.9683    0.0000 C   0  0  0  0  0  0  0  0  0  0  0  0
    7.2040   -1.4415    0.0000 H   0  0  0  0  0  0  0  0  0  0  0  0
    5.8138   -0.5558    0.0000 C   0  0  0  0  0  0  0  0  0  0  0  0
    7.9572    0.6817    0.0000 H   0  0  0  0  0  0  0  0  0  0  0  0
    6.5282    1.5067    0.0000 H   0  0  0  0  0  0  0  0  0  0  0  0
    4.4732   -2.4197    0.0000 H   0  0  0  0  0  0  0  0  0  0  0  0
    5.1691   -2.1664    0.0000 H   0  0  0  0  0  0  0  0  0  0  0  0
    3.2262   -2.0890    0.0000 N   0  0  0  0  0  0  0  0  0  0  0  0
    3.5084   -2.8642    0.0000 C   0  0  0  0  0  0  0  0  0  0  0  0
    4.3327   -2.8985    0.0000 H   0  0  0  0  0  0  0  0  0  0  0  0
    3.9955   -2.1984    0.0000 H   0  0  0  0  0  0  0  0  0  0  0  0
    2.9781   -3.4962    0.0000 C   0  0  0  0  0  0  0  0  0  0  0  0
    2.8823   -4.3156    0.0000 H   0  0  0  0  0  0  0  0  0  0  0  0
    3.5782   -4.0624    0.0000 H   0  0  0  0  0  0  0  0  0  0  0  0
    2.1656   -3.3529    0.0000 C   0  0  0  0  0  0  0  0  0  0  0  0
    1.4081   -3.6797    0.0000 H   0  0  0  0  0  0  0  0  0  0  0  0
    1.9754   -4.1557    0.0000 H   0  0  0  0  0  0  0  0  0  0  0  0
    1.8835   -2.5777    0.0000 C   0  0  0  0  0  0  0  0  0  0  0  0
    1.2217   -2.0850    0.0000 H   0  0  0  0  0  0  0  0  0  0  0  0
    1.0931   -2.8143    0.0000 H   0  0  0  0  0  0  0  0  0  0  0  0
    2.4138   -1.9457    0.0000 C   0  0  0  0  0  0  0  0  0  0  0  0
    2.1316   -1.1705    0.0000 C   0  0  0  0  0  0  0  0  0  0  0  0
    1.3386   -0.9431    0.0000 N   0  0  0  0  0  0  0  0  0  0  0  0
    1.3098   -0.1186    0.0000 C   0  0  0  0  0  0  0  0  0  0  0  0
    0.6258    0.3428    0.0000 H   0  0  0  0  0  0  0  0  0  0  0  0
    2.0850    0.1636    0.0000 N   0  0  0  0  0  0  0  0  0  0  0  0
    2.3124    0.9566    0.0000 H   0  0  0  0  0  0  0  0  0  0  0  0
    2.5929   -0.4865    0.0000 N   0  0  0  0  0  0  0  0  0  0  0  0
    2.9441   -1.3137    0.0000 H   0  0  0  0  0  0  0  0  0  0  0  0
  1  2  2  0  0  0  0
  2  3  1  0  0  0  0
  3  4  1  0  0  0  0
  4  5  1  0  0  0  0
  5  6  2  0  0  0  0
  5  7  1  0  0  0  0
  7  8  1  0  0  0  0
  8  9  2  0  0  0  0
  9 10  1  0  0  0  0
  9 11  1  0  0  0  0
 11 12  2  0  0  0  0
 12 13  1  0  0  0  0
 12 14  1  0  0  0  0
 14 15  2  0  0  0  0
 15 16  1  0  0  0  0
 16 17  2  0  0  0  0
 17 18  1  0  0  0  0
 18 19  1  0  0  0  0
 18 20  2  0  0  0  0
  8 20  1  0  0  0  0
 14 20  1  0  0  0  0
 17 21  1  0  0  0  0
 16 22  1  0  0  0  0
 15 23  1  0  0  0  0
  7 24  1  0  0  0  0
  4 25  1  0  0  0  0
 25 26  1  0  0  0  0
 25 27  1  0  0  0  0
 25 28  1  0  0  0  0
 28 29  1  0  0  0  0
 28 30  1  0  0  0  0
 28 31  1  0  0  0  0
 31 32  1  0  0  0  0
 32 33  2  0  0  0  0
 33 34  1  0  0  0  0
 34 35  2  0  0  0  0
 35 36  1  0  0  0  0
 35 37  1  0  0  0  0
 37 38  1  0  0  0  0
 37 39  2  0  0  0  0
  4 39  1  0  0  0  0
 32 39  1  0  0  0  0
 34 40  1  0  0  0  0
 33 41  1  0  0  0  0
  3 42  1  0  0  0  0
  3 43  1  0  0  0  0
  2 44  1  0  0  0  0
 44 45  1  0  0  0  0
 45 46  1  0  0  0  0
 45 47  1  0  0  0  0
 45 48  1  0  0  0  0
 48 49  1  0  0  0  0
 48 50  1  0  0  0  0
 48 51  1  0  0  0  0
 51 52  1  0  0  0  0
 51 53  1  0  0  0  0
 51 54  1  0  0  0  0
 54 55  1  0  0  0  0
 54 56  1  0  0  0  0
 54 57  1  0  0  0  0
 44 57  1  0  0  0  0
 57 58  1  0  0  0  0
 58 59  1  0  0  0  0
 59 60  2  0  0  0  0
 60 61  1  0  0  0  0
 60 62  1  0  0  0  0
 62 63  1  0  0  0  0
 62 64  1  0  0  0  0
 58 64  2  0  0  0  0
 57 65  1  0  0  0  0
M  END
> <Potency>
0.436516103663582

> <pIC50>
6.3599997299578925

> <Outcome>
Active

> <is_active>
1

$$$$

  Mrv1921 08232120312D          

 61 66  0  0  0  0            999 V2000
    3.4744   -0.6817    0.0000 O   0  0  0  0  0  0  0  0  0  0  0  0
    3.7565   -1.4570    0.0000 C   0  0  0  0  0  0  0  0  0  0  0  0
    4.5690   -1.6002    0.0000 C   0  0  0  0  0  0  0  0  0  0  0  0
    5.0993   -0.9683    0.0000 C   0  0  0  0  0  0  0  0  0  0  0  0
    5.6296   -1.6002    0.0000 C   0  0  0  0  0  0  0  0  0  0  0  0
    6.4421   -1.4570    0.0000 O   0  0  0  0  0  0  0  0  0  0  0  0
    5.3474   -2.3755    0.0000 N   0  0  0  0  0  0  0  0  0  0  0  0
    5.8777   -3.0075    0.0000 C   0  0  0  0  0  0  0  0  0  0  0  0
    6.6902   -2.8642    0.0000 C   0  0  0  0  0  0  0  0  0  0  0  0
    6.9724   -2.0890    0.0000 H   0  0  0  0  0  0  0  0  0  0  0  0
    7.2205   -3.4962    0.0000 N   0  0  0  0  0  0  0  0  0  0  0  0
    6.9383   -4.2715    0.0000 C   0  0  0  0  0  0  0  0  0  0  0  0
    7.4686   -4.9034    0.0000 H   0  0  0  0  0  0  0  0  0  0  0  0
    6.1259   -4.4147    0.0000 C   0  0  0  0  0  0  0  0  0  0  0  0
    5.8437   -5.1900    0.0000 C   0  0  0  0  0  0  0  0  0  0  0  0
    5.0312   -5.3332    0.0000 C   0  0  0  0  0  0  0  0  0  0  0  0
    4.5009   -4.7012    0.0000 C   0  0  0  0  0  0  0  0  0  0  0  0
    4.7831   -3.9260    0.0000 C   0  0  0  0  0  0  0  0  0  0  0  0
    3.9995   -3.6679    0.0000 H   0  0  0  0  0  0  0  0  0  0  0  0
    5.5956   -3.7827    0.0000 C   0  0  0  0  0  0  0  0  0  0  0  0
    3.6885   -4.8445    0.0000 H   0  0  0  0  0  0  0  0  0  0  0  0
    4.7491   -6.1085    0.0000 H   0  0  0  0  0  0  0  0  0  0  0  0
    6.3740   -5.8219    0.0000 H   0  0  0  0  0  0  0  0  0  0  0  0
    5.0177   -3.1318    0.0000 H   0  0  0  0  0  0  0  0  0  0  0  0
    4.3848   -0.5558    0.0000 C   0  0  0  0  0  0  0  0  0  0  0  0
    4.2265   -1.3654    0.0000 H   0  0  0  0  0  0  0  0  0  0  0  0
    5.0993   -0.1433    0.0000 H   0  0  0  0  0  0  0  0  0  0  0  0
    4.3848    0.2692    0.0000 C   0  0  0  0  0  0  0  0  0  0  0  0
    3.9315    0.9585    0.0000 H   0  0  0  0  0  0  0  0  0  0  0  0
    3.5612    0.3172    0.0000 H   0  0  0  0  0  0  0  0  0  0  0  0
    5.0993    0.6817    0.0000 O   0  0  0  0  0  0  0  0  0  0  0  0
    5.8138    0.2692    0.0000 C   0  0  0  0  0  0  0  0  0  0  0  0
    6.5282    0.6817    0.0000 C   0  0  0  0  0  0  0  0  0  0  0  0
    7.2427    0.2692    0.0000 C   0  0  0  0  0  0  0  0  0  0  0  0
    7.2427   -0.5558    0.0000 C   0  0  0  0  0  0  0  0  0  0  0  0
    7.9572   -0.9683    0.0000 Cl  0  0  0  0  0  0  0  0  0  0  0  0
    6.5282   -0.9683    0.0000 C   0  0  0  0  0  0  0  0  0  0  0  0
    7.2040   -1.4415    0.0000 H   0  0  0  0  0  0  0  0  0  0  0  0
    5.8138   -0.5558    0.0000 C   0  0  0  0  0  0  0  0  0  0  0  0
    7.9572    0.6817    0.0000 H   0  0  0  0  0  0  0  0  0  0  0  0
    6.5282    1.5067    0.0000 H   0  0  0  0  0  0  0  0  0  0  0  0
    4.4732   -2.4197    0.0000 H   0  0  0  0  0  0  0  0  0  0  0  0
    5.1691   -2.1664    0.0000 H   0  0  0  0  0  0  0  0  0  0  0  0
    3.2262   -2.0890    0.0000 N   0  0  0  0  0  0  0  0  0  0  0  0
    3.4258   -2.8895    0.0000 C   0  0  0  0  0  0  0  0  0  0  0  0
    4.2507   -2.9049    0.0000 H   0  0  0  0  0  0  0  0  0  0  0  0
    3.9398   -2.2441    0.0000 H   0  0  0  0  0  0  0  0  0  0  0  0
    2.7262   -3.3267    0.0000 C   0  0  0  0  0  0  0  0  0  0  0  0
    2.2890   -4.0263    0.0000 H   0  0  0  0  0  0  0  0  0  0  0  0
    3.0617   -4.0803    0.0000 H   0  0  0  0  0  0  0  0  0  0  0  0
    2.0942   -2.7964    0.0000 C   0  0  0  0  0  0  0  0  0  0  0  0
    1.2937   -2.5968    0.0000 H   0  0  0  0  0  0  0  0  0  0  0  0
    1.4811   -3.3484    0.0000 H   0  0  0  0  0  0  0  0  0  0  0  0
    2.4032   -2.0314    0.0000 C   0  0  0  0  0  0  0  0  0  0  0  0
    1.9661   -1.3318    0.0000 C   0  0  0  0  0  0  0  0  0  0  0  0
    1.1431   -1.2742    0.0000 N   0  0  0  0  0  0  0  0  0  0  0  0
    0.9435   -0.4737    0.0000 N   0  0  0  0  0  0  0  0  0  0  0  0
    1.6431   -0.0366    0.0000 N   0  0  0  0  0  0  0  0  0  0  0  0
    2.2751   -0.5669    0.0000 N   0  0  0  0  0  0  0  0  0  0  0  0
    2.8778   -0.0035    0.0000 H   0  0  0  0  0  0  0  0  0  0  0  0
    2.8281   -1.3243    0.0000 H   0  0  0  0  0  0  0  0  0  0  0  0
  1  2  2  0  0  0  0
  2  3  1  0  0  0  0
  3  4  1  0  0  0  0
  4  5  1  0  0  0  0
  5  6  2  0  0  0  0
  5  7  1  0  0  0  0
  7  8  1  0  0  0  0
  8  9  2  0  0  0  0
  9 10  1  0  0  0  0
  9 11  1  0  0  0  0
 11 12  2  0  0  0  0
 12 13  1  0  0  0  0
 12 14  1  0  0  0  0
 14 15  2  0  0  0  0
 15 16  1  0  0  0  0
 16 17  2  0  0  0  0
 17 18  1  0  0  0  0
 18 19  1  0  0  0  0
 18 20  2  0  0  0  0
  8 20  1  0  0  0  0
 14 20  1  0  0  0  0
 17 21  1  0  0  0  0
 16 22  1  0  0  0  0
 15 23  1  0  0  0  0
  7 24  1  0  0  0  0
  4 25  1  0  0  0  0
 25 26  1  0  0  0  0
 25 27  1  0  0  0  0
 25 28  1  0  0  0  0
 28 29  1  0  0  0  0
 28 30  1  0  0  0  0
 28 31  1  0  0  0  0
 31 32  1  0  0  0  0
 32 33  2  0  0  0  0
 33 34  1  0  0  0  0
 34 35  2  0  0  0  0
 35 36  1  0  0  0  0
 35 37  1  0  0  0  0
 37 38  1  0  0  0  0
 37 39  2  0  0  0  0
  4 39  1  0  0  0  0
 32 39  1  0  0  0  0
 34 40  1  0  0  0  0
 33 41  1  0  0  0  0
  3 42  1  0  0  0  0
  3 43  1  0  0  0  0
  2 44  1  0  0  0  0
 44 45  1  0  0  0  0
 45 46  1  0  0  0  0
 45 47  1  0  0  0  0
 45 48  1  0  0  0  0
 48 49  1  0  0  0  0
 48 50  1  0  0  0  0
 48 51  1  0  0  0  0
 51 52  1  0  0  0  0
 51 53  1  0  0  0  0
 51 54  1  0  0  0  0
 44 54  1  0  0  0  0
 54 55  1  0  0  0  0
 55 56  2  0  0  0  0
 56 57  1  0  0  0  0
 57 58  2  0  0  0  0
 58 59  1  0  0  0  0
 55 59  1  0  0  0  0
 59 60  1  0  0  0  0
 54 61  1  0  0  0  0
M  END
> <Potency>
7.97804137805834

> <pIC50>
5.098103715554907

> <Outcome>
Active

> <is_active>
1

$$$$

  Mrv1921 08232120312D          

 42 45  0  0  0  0            999 V2000
    3.5724   -2.8875    0.0000 C   0  0  0  0  0  0  0  0  0  0  0  0
    2.8579   -2.4750    0.0000 C   0  0  0  0  0  0  0  0  0  0  0  0
    2.1434   -2.8875    0.0000 C   0  0  0  0  0  0  0  0  0  0  0  0
    2.1434   -3.7125    0.0000 O   0  0  0  0  0  0  0  0  0  0  0  0
    1.4289   -2.4750    0.0000 N   0  0  0  0  0  0  0  0  0  0  0  0
    0.7145   -2.8875    0.0000 C   0  0  0  0  0  0  0  0  0  0  0  0
    0.0000   -2.4750    0.0000 O   0  0  0  0  0  0  0  0  0  0  0  0
    0.7145   -3.7125    0.0000 C   0  0  0  0  0  0  0  0  0  0  0  0
    1.3819   -4.1974    0.0000 C   0  0  0  0  0  0  0  0  0  0  0  0
    2.0342   -4.7026    0.0000 H   0  0  0  0  0  0  0  0  0  0  0  0
    1.4072   -3.3728    0.0000 H   0  0  0  0  0  0  0  0  0  0  0  0
    1.1270   -4.9820    0.0000 O   0  0  0  0  0  0  0  0  0  0  0  0
    0.3020   -4.9820    0.0000 C   0  0  0  0  0  0  0  0  0  0  0  0
   -0.2501   -5.5951    0.0000 C   0  0  0  0  0  0  0  0  0  0  0  0
   -1.0570   -5.4236    0.0000 C   0  0  0  0  0  0  0  0  0  0  0  0
   -1.3120   -4.6390    0.0000 C   0  0  0  0  0  0  0  0  0  0  0  0
   -2.1189   -4.4675    0.0000 Cl  0  0  0  0  0  0  0  0  0  0  0  0
   -0.7599   -4.0259    0.0000 C   0  0  0  0  0  0  0  0  0  0  0  0
   -1.0149   -3.2413    0.0000 H   0  0  0  0  0  0  0  0  0  0  0  0
    0.0470   -4.1974    0.0000 C   0  0  0  0  0  0  0  0  0  0  0  0
   -1.6091   -6.0367    0.0000 H   0  0  0  0  0  0  0  0  0  0  0  0
    0.0049   -6.3798    0.0000 H   0  0  0  0  0  0  0  0  0  0  0  0
   -0.0206   -3.3380    0.0000 H   0  0  0  0  0  0  0  0  0  0  0  0
    1.4289   -1.6500    0.0000 C   0  0  0  0  0  0  0  0  0  0  0  0
    0.7145   -1.2375    0.0000 C   0  0  0  0  0  0  0  0  0  0  0  0
    0.0000   -1.6500    0.0000 H   0  0  0  0  0  0  0  0  0  0  0  0
    0.7145   -0.4125    0.0000 N   0  0  0  0  0  0  0  0  0  0  0  0
    1.4289    0.0000    0.0000 C   0  0  0  0  0  0  0  0  0  0  0  0
    1.4289    0.8250    0.0000 H   0  0  0  0  0  0  0  0  0  0  0  0
    2.1434   -0.4125    0.0000 C   0  0  0  0  0  0  0  0  0  0  0  0
    2.8579    0.0000    0.0000 C   0  0  0  0  0  0  0  0  0  0  0  0
    3.5724   -0.4125    0.0000 C   0  0  0  0  0  0  0  0  0  0  0  0
    3.5724   -1.2375    0.0000 C   0  0  0  0  0  0  0  0  0  0  0  0
    2.8579   -1.6500    0.0000 C   0  0  0  0  0  0  0  0  0  0  0  0
    2.8579   -0.8250    0.0000 H   0  0  0  0  0  0  0  0  0  0  0  0
    2.1434   -1.2375    0.0000 C   0  0  0  0  0  0  0  0  0  0  0  0
    4.2868   -1.6500    0.0000 H   0  0  0  0  0  0  0  0  0  0  0  0
    4.2868   -0.0000    0.0000 H   0  0  0  0  0  0  0  0  0  0  0  0
    2.8579    0.8250    0.0000 H   0  0  0  0  0  0  0  0  0  0  0  0
    2.1434   -2.0625    0.0000 H   0  0  0  0  0  0  0  0  0  0  0  0
    3.5724   -3.7125    0.0000 H   0  0  0  0  0  0  0  0  0  0  0  0
    4.2868   -2.4750    0.0000 H   0  0  0  0  0  0  0  0  0  0  0  0
  1  2  2  0  0  0  0
  2  3  1  0  0  0  0
  3  4  2  0  0  0  0
  3  5  1  0  0  0  0
  5  6  1  0  0  0  0
  6  7  2  0  0  0  0
  6  8  1  0  0  0  0
  8  9  1  0  0  0  0
  9 10  1  0  0  0  0
  9 11  1  0  0  0  0
  9 12  1  0  0  0  0
 12 13  1  0  0  0  0
 13 14  2  0  0  0  0
 14 15  1  0  0  0  0
 15 16  2  0  0  0  0
 16 17  1  0  0  0  0
 16 18  1  0  0  0  0
 18 19  1  0  0  0  0
 18 20  2  0  0  0  0
  8 20  1  0  0  0  0
 13 20  1  0  0  0  0
 15 21  1  0  0  0  0
 14 22  1  0  0  0  0
  8 23  1  0  0  0  0
  5 24  1  0  0  0  0
 24 25  2  0  0  0  0
 25 26  1  0  0  0  0
 25 27  1  0  0  0  0
 27 28  2  0  0  0  0
 28 29  1  0  0  0  0
 28 30  1  0  0  0  0
 30 31  2  0  0  0  0
 31 32  1  0  0  0  0
 32 33  2  0  0  0  0
 33 34  1  0  0  0  0
 34 35  1  0  0  0  0
 34 36  2  0  0  0  0
 24 36  1  0  0  0  0
 30 36  1  0  0  0  0
 33 37  1  0  0  0  0
 32 38  1  0  0  0  0
 31 39  1  0  0  0  0
  2 40  1  0  0  0  0
  1 41  1  0  0  0  0
  1 42  1  0  0  0  0
M  END
> <Potency>
0.0405493901190931

> <pIC50>
7.392015673386347

> <Outcome>
Active

> <is_active>
1

$$$$

  Mrv1921 08232120312D          

 58 62  0  0  0  0            999 V2000
    3.8886   -2.5452    0.0000 O   0  0  0  0  0  0  0  0  0  0  0  0
    3.6064   -1.7700    0.0000 C   0  0  0  0  0  0  0  0  0  0  0  0
    4.1367   -1.1380    0.0000 N   0  0  0  0  0  0  0  0  0  0  0  0
    3.8545   -0.3627    0.0000 C   0  0  0  0  0  0  0  0  0  0  0  0
    4.3848    0.2692    0.0000 C   0  0  0  0  0  0  0  0  0  0  0  0
    4.9151   -0.3627    0.0000 C   0  0  0  0  0  0  0  0  0  0  0  0
    4.6330   -1.1380    0.0000 O   0  0  0  0  0  0  0  0  0  0  0  0
    5.7276   -0.2195    0.0000 N   0  0  0  0  0  0  0  0  0  0  0  0
    6.2579   -0.8515    0.0000 C   0  0  0  0  0  0  0  0  0  0  0  0
    7.0704   -0.7082    0.0000 C   0  0  0  0  0  0  0  0  0  0  0  0
    7.7121   -0.1898    0.0000 H   0  0  0  0  0  0  0  0  0  0  0  0
    7.6007   -1.3402    0.0000 N   0  0  0  0  0  0  0  0  0  0  0  0
    7.3185   -2.1154    0.0000 C   0  0  0  0  0  0  0  0  0  0  0  0
    7.8488   -2.7474    0.0000 H   0  0  0  0  0  0  0  0  0  0  0  0
    6.5060   -2.2587    0.0000 C   0  0  0  0  0  0  0  0  0  0  0  0
    6.2239   -3.0340    0.0000 C   0  0  0  0  0  0  0  0  0  0  0  0
    5.4114   -3.1772    0.0000 C   0  0  0  0  0  0  0  0  0  0  0  0
    4.8811   -2.5452    0.0000 C   0  0  0  0  0  0  0  0  0  0  0  0
    5.1633   -1.7700    0.0000 C   0  0  0  0  0  0  0  0  0  0  0  0
    5.4454   -0.9947    0.0000 H   0  0  0  0  0  0  0  0  0  0  0  0
    5.9757   -1.6267    0.0000 C   0  0  0  0  0  0  0  0  0  0  0  0
    4.2093   -3.0241    0.0000 H   0  0  0  0  0  0  0  0  0  0  0  0
    5.1292   -3.9525    0.0000 H   0  0  0  0  0  0  0  0  0  0  0  0
    6.7542   -3.6659    0.0000 H   0  0  0  0  0  0  0  0  0  0  0  0
    6.5245   -0.0060    0.0000 H   0  0  0  0  0  0  0  0  0  0  0  0
    3.6704    0.6817    0.0000 C   0  0  0  0  0  0  0  0  0  0  0  0
    2.8949    0.9634    0.0000 H   0  0  0  0  0  0  0  0  0  0  0  0
    4.3848    1.0942    0.0000 H   0  0  0  0  0  0  0  0  0  0  0  0
    3.6704    1.5067    0.0000 C   0  0  0  0  0  0  0  0  0  0  0  0
    3.4995    2.3139    0.0000 H   0  0  0  0  0  0  0  0  0  0  0  0
    3.0109    2.0025    0.0000 H   0  0  0  0  0  0  0  0  0  0  0  0
    4.3848    1.9192    0.0000 O   0  0  0  0  0  0  0  0  0  0  0  0
    5.0993    1.5067    0.0000 C   0  0  0  0  0  0  0  0  0  0  0  0
    5.8138    1.9192    0.0000 C   0  0  0  0  0  0  0  0  0  0  0  0
    6.5282    1.5067    0.0000 C   0  0  0  0  0  0  0  0  0  0  0  0
    6.5282    0.6817    0.0000 C   0  0  0  0  0  0  0  0  0  0  0  0
    7.2427    0.2692    0.0000 Cl  0  0  0  0  0  0  0  0  0  0  0  0
    5.8138    0.2692    0.0000 C   0  0  0  0  0  0  0  0  0  0  0  0
    5.0661   -0.0794    0.0000 H   0  0  0  0  0  0  0  0  0  0  0  0
    5.0993    0.6817    0.0000 C   0  0  0  0  0  0  0  0  0  0  0  0
    7.2427    1.9192    0.0000 H   0  0  0  0  0  0  0  0  0  0  0  0
    5.8138    2.7442    0.0000 H   0  0  0  0  0  0  0  0  0  0  0  0
    3.3271    0.2717    0.0000 H   0  0  0  0  0  0  0  0  0  0  0  0
    4.6670   -0.5060    0.0000 H   0  0  0  0  0  0  0  0  0  0  0  0
    4.4853   -1.8857    0.0000 H   0  0  0  0  0  0  0  0  0  0  0  0
    2.7939   -1.6267    0.0000 C   0  0  0  0  0  0  0  0  0  0  0  0
    3.0213   -0.8337    0.0000 O   0  0  0  0  0  0  0  0  0  0  0  0
    2.3735   -0.3228    0.0000 H   0  0  0  0  0  0  0  0  0  0  0  0
    2.7364   -2.4497    0.0000 C   0  0  0  0  0  0  0  0  0  0  0  0
    3.0454   -3.2146    0.0000 H   0  0  0  0  0  0  0  0  0  0  0  0
    3.5433   -2.6212    0.0000 H   0  0  0  0  0  0  0  0  0  0  0  0
    1.9359   -2.6493    0.0000 C   0  0  0  0  0  0  0  0  0  0  0  0
    1.3039   -3.1796    0.0000 H   0  0  0  0  0  0  0  0  0  0  0  0
    2.0221   -3.4698    0.0000 H   0  0  0  0  0  0  0  0  0  0  0  0
    1.4987   -1.9497    0.0000 S   0  0  0  0  0  0  0  0  0  0  0  0
    2.0290   -1.3177    0.0000 C   0  0  0  0  0  0  0  0  0  0  0  0
    2.2286   -0.5172    0.0000 H   0  0  0  0  0  0  0  0  0  0  0  0
    1.4770   -0.7046    0.0000 H   0  0  0  0  0  0  0  0  0  0  0  0
  1  2  2  0  0  0  0
  2  3  1  0  0  0  0
  3  4  1  0  0  0  0
  4  5  1  0  0  0  0
  5  6  1  0  0  0  0
  6  7  2  0  0  0  0
  6  8  1  0  0  0  0
  8  9  1  0  0  0  0
  9 10  2  0  0  0  0
 10 11  1  0  0  0  0
 10 12  1  0  0  0  0
 12 13  2  0  0  0  0
 13 14  1  0  0  0  0
 13 15  1  0  0  0  0
 15 16  2  0  0  0  0
 16 17  1  0  0  0  0
 17 18  2  0  0  0  0
 18 19  1  0  0  0  0
 19 20  1  0  0  0  0
 19 21  2  0  0  0  0
  9 21  1  0  0  0  0
 15 21  1  0  0  0  0
 18 22  1  0  0  0  0
 17 23  1  0  0  0  0
 16 24  1  0  0  0  0
  8 25  1  0  0  0  0
  5 26  1  0  0  0  0
 26 27  1  0  0  0  0
 26 28  1  0  0  0  0
 26 29  1  0  0  0  0
 29 30  1  0  0  0  0
 29 31  1  0  0  0  0
 29 32  1  0  0  0  0
 32 33  1  0  0  0  0
 33 34  2  0  0  0  0
 34 35  1  0  0  0  0
 35 36  2  0  0  0  0
 36 37  1  0  0  0  0
 36 38  1  0  0  0  0
 38 39  1  0  0  0  0
 38 40  2  0  0  0  0
  5 40  1  0  0  0  0
 33 40  1  0  0  0  0
 35 41  1  0  0  0  0
 34 42  1  0  0  0  0
  4 43  1  0  0  0  0
  4 44  1  0  0  0  0
  3 45  1  0  0  0  0
  2 46  1  0  0  0  0
 46 47  1  0  0  0  0
 47 48  1  0  0  0  0
 46 49  1  0  0  0  0
 49 50  1  0  0  0  0
 49 51  1  0  0  0  0
 49 52  1  0  0  0  0
 52 53  1  0  0  0  0
 52 54  1  0  0  0  0
 52 55  1  0  0  0  0
 55 56  1  0  0  0  0
 46 56  1  0  0  0  0
 56 57  1  0  0  0  0
 56 58  1  0  0  0  0
M  END
> <Potency>
1.93745420034216

> <pIC50>
5.712768555027467

> <Outcome>
Active

> <is_active>
1

$$$$

  Mrv1921 08232120312D          

 44 48  0  0  0  0            999 V2000
    1.6275    1.3540    0.0000 C   0  0  0  0  0  0  0  0  0  0  0  0
    2.1912    0.7516    0.0000 N   0  0  0  0  0  0  0  0  0  0  0  0
    2.9383    1.1016    0.0000 C   0  0  0  0  0  0  0  0  0  0  0  0
    3.0942    1.9118    0.0000 O   0  0  0  0  0  0  0  0  0  0  0  0
    3.5020    0.4993    0.0000 N   0  0  0  0  0  0  0  0  0  0  0  0
    4.3207    0.6013    0.0000 C   0  0  0  0  0  0  0  0  0  0  0  0
    4.8184   -0.0567    0.0000 C   0  0  0  0  0  0  0  0  0  0  0  0
    4.4974   -0.8167    0.0000 H   0  0  0  0  0  0  0  0  0  0  0  0
    5.6371    0.0454    0.0000 N   0  0  0  0  0  0  0  0  0  0  0  0
    5.9580    0.8054    0.0000 C   0  0  0  0  0  0  0  0  0  0  0  0
    6.7767    0.9074    0.0000 H   0  0  0  0  0  0  0  0  0  0  0  0
    5.4603    1.4633    0.0000 C   0  0  0  0  0  0  0  0  0  0  0  0
    5.7813    2.2233    0.0000 C   0  0  0  0  0  0  0  0  0  0  0  0
    5.2836    2.8813    0.0000 C   0  0  0  0  0  0  0  0  0  0  0  0
    4.4650    2.7793    0.0000 C   0  0  0  0  0  0  0  0  0  0  0  0
    4.1440    2.0193    0.0000 C   0  0  0  0  0  0  0  0  0  0  0  0
    3.3253    1.9173    0.0000 H   0  0  0  0  0  0  0  0  0  0  0  0
    4.6417    1.3613    0.0000 C   0  0  0  0  0  0  0  0  0  0  0  0
    3.9673    3.4373    0.0000 H   0  0  0  0  0  0  0  0  0  0  0  0
    5.6046    3.6413    0.0000 H   0  0  0  0  0  0  0  0  0  0  0  0
    6.6000    2.3254    0.0000 H   0  0  0  0  0  0  0  0  0  0  0  0
    3.1034   -0.2230    0.0000 C   0  0  0  0  0  0  0  0  0  0  0  0
    3.4534   -0.9701    0.0000 O   0  0  0  0  0  0  0  0  0  0  0  0
    2.2932   -0.0670    0.0000 C   0  0  0  0  0  0  0  0  0  0  0  0
    2.4803   -0.8706    0.0000 C   0  0  0  0  0  0  0  0  0  0  0  0
    2.8194   -1.6226    0.0000 H   0  0  0  0  0  0  0  0  0  0  0  0
    3.2276   -1.2200    0.0000 H   0  0  0  0  0  0  0  0  0  0  0  0
    1.8779   -1.4343    0.0000 C   0  0  0  0  0  0  0  0  0  0  0  0
    1.4080   -2.1124    0.0000 H   0  0  0  0  0  0  0  0  0  0  0  0
    1.9716   -2.2540    0.0000 H   0  0  0  0  0  0  0  0  0  0  0  0
    1.0886   -1.1945    0.0000 O   0  0  0  0  0  0  0  0  0  0  0  0
    0.9015   -0.3910    0.0000 C   0  0  0  0  0  0  0  0  0  0  0  0
    0.1121   -0.1512    0.0000 C   0  0  0  0  0  0  0  0  0  0  0  0
   -0.0749    0.6523    0.0000 C   0  0  0  0  0  0  0  0  0  0  0  0
    0.5274    1.2160    0.0000 C   0  0  0  0  0  0  0  0  0  0  0  0
    0.3404    2.0195    0.0000 Cl  0  0  0  0  0  0  0  0  0  0  0  0
    1.3168    0.9762    0.0000 C   0  0  0  0  0  0  0  0  0  0  0  0
    0.7145    0.4125    0.0000 H   0  0  0  0  0  0  0  0  0  0  0  0
    1.5039    0.1727    0.0000 C   0  0  0  0  0  0  0  0  0  0  0  0
   -0.8643    0.8920    0.0000 H   0  0  0  0  0  0  0  0  0  0  0  0
   -0.4902   -0.7150    0.0000 H   0  0  0  0  0  0  0  0  0  0  0  0
    2.3898    1.6693    0.0000 H   0  0  0  0  0  0  0  0  0  0  0  0
    1.6011    2.1785    0.0000 H   0  0  0  0  0  0  0  0  0  0  0  0
    0.8465    1.6198    0.0000 H   0  0  0  0  0  0  0  0  0  0  0  0
  1  2  1  0  0  0  0
  2  3  1  0  0  0  0
  3  4  2  0  0  0  0
  3  5  1  0  0  0  0
  5  6  1  0  0  0  0
  6  7  2  0  0  0  0
  7  8  1  0  0  0  0
  7  9  1  0  0  0  0
  9 10  2  0  0  0  0
 10 11  1  0  0  0  0
 10 12  1  0  0  0  0
 12 13  2  0  0  0  0
 13 14  1  0  0  0  0
 14 15  2  0  0  0  0
 15 16  1  0  0  0  0
 16 17  1  0  0  0  0
 16 18  2  0  0  0  0
  6 18  1  0  0  0  0
 12 18  1  0  0  0  0
 15 19  1  0  0  0  0
 14 20  1  0  0  0  0
 13 21  1  0  0  0  0
  5 22  1  0  0  0  0
 22 23  2  0  0  0  0
 22 24  1  0  0  0  0
  2 24  1  0  0  0  0
 24 25  1  0  0  0  0
 25 26  1  0  0  0  0
 25 27  1  0  0  0  0
 25 28  1  0  0  0  0
 28 29  1  0  0  0  0
 28 30  1  0  0  0  0
 28 31  1  0  0  0  0
 31 32  1  0  0  0  0
 32 33  2  0  0  0  0
 33 34  1  0  0  0  0
 34 35  2  0  0  0  0
 35 36  1  0  0  0  0
 35 37  1  0  0  0  0
 37 38  1  0  0  0  0
 37 39  2  0  0  0  0
 24 39  1  0  0  0  0
 32 39  1  0  0  0  0
 34 40  1  0  0  0  0
 33 41  1  0  0  0  0
  1 42  1  0  0  0  0
  1 43  1  0  0  0  0
  1 44  1  0  0  0  0
M  END
> <Potency>
0.562748193686551

> <pIC50>
6.2496858903269485

> <Outcome>
Active

> <is_active>
1

$$$$

  Mrv1921 08232120312D          

 50 53  0  0  0  0            999 V2000
   -4.7229   -5.5330    0.0000 C   0  0  0  0  0  0  0  0  0  0  0  0
   -4.4679   -4.7484    0.0000 N   0  0  0  0  0  0  0  0  0  0  0  0
   -3.6610   -4.5769    0.0000 C   0  0  0  0  0  0  0  0  0  0  0  0
   -3.1089   -5.1900    0.0000 O   0  0  0  0  0  0  0  0  0  0  0  0
   -3.4060   -3.7923    0.0000 N   0  0  0  0  0  0  0  0  0  0  0  0
   -2.5990   -3.6207    0.0000 C   0  0  0  0  0  0  0  0  0  0  0  0
   -2.3441   -2.8361    0.0000 C   0  0  0  0  0  0  0  0  0  0  0  0
   -2.8961   -2.2230    0.0000 H   0  0  0  0  0  0  0  0  0  0  0  0
   -1.5371   -2.6646    0.0000 C   0  0  0  0  0  0  0  0  0  0  0  0
   -1.2822   -1.8800    0.0000 H   0  0  0  0  0  0  0  0  0  0  0  0
   -0.9851   -3.2777    0.0000 C   0  0  0  0  0  0  0  0  0  0  0  0
   -0.1781   -3.1062    0.0000 N   0  0  0  0  0  0  0  0  0  0  0  0
    0.3739   -3.7192    0.0000 C   0  0  0  0  0  0  0  0  0  0  0  0
    0.1190   -4.5039    0.0000 C   0  0  0  0  0  0  0  0  0  0  0  0
    0.6039   -5.1713    0.0000 C   0  0  0  0  0  0  0  0  0  0  0  0
    1.4289   -5.1713    0.0000 H   0  0  0  0  0  0  0  0  0  0  0  0
    0.1190   -5.8387    0.0000 C   0  0  0  0  0  0  0  0  0  0  0  0
    0.3739   -6.6234    0.0000 H   0  0  0  0  0  0  0  0  0  0  0  0
   -0.6657   -5.5838    0.0000 S   0  0  0  0  0  0  0  0  0  0  0  0
   -0.6657   -4.7588    0.0000 C   0  0  0  0  0  0  0  0  0  0  0  0
   -1.4421   -5.0377    0.0000 H   0  0  0  0  0  0  0  0  0  0  0  0
    1.1720   -3.9281    0.0000 H   0  0  0  0  0  0  0  0  0  0  0  0
    1.0181   -3.2038    0.0000 H   0  0  0  0  0  0  0  0  0  0  0  0
    0.0768   -2.3215    0.0000 C   0  0  0  0  0  0  0  0  0  0  0  0
   -0.4752   -1.7084    0.0000 O   0  0  0  0  0  0  0  0  0  0  0  0
    0.8838   -2.1500    0.0000 C   0  0  0  0  0  0  0  0  0  0  0  0
    1.1387   -1.3654    0.0000 N   0  0  0  0  0  0  0  0  0  0  0  0
    0.6538   -0.6979    0.0000 N   0  0  0  0  0  0  0  0  0  0  0  0
    1.1387   -0.0305    0.0000 N   0  0  0  0  0  0  0  0  0  0  0  0
    1.9233   -0.2854    0.0000 C   0  0  0  0  0  0  0  0  0  0  0  0
    2.6378    0.1271    0.0000 C   0  0  0  0  0  0  0  0  0  0  0  0
    3.3523   -0.2854    0.0000 C   0  0  0  0  0  0  0  0  0  0  0  0
    3.3523   -1.1104    0.0000 C   0  0  0  0  0  0  0  0  0  0  0  0
    2.6378   -1.5229    0.0000 C   0  0  0  0  0  0  0  0  0  0  0  0
    2.6378   -2.3479    0.0000 H   0  0  0  0  0  0  0  0  0  0  0  0
    1.9233   -1.1104    0.0000 C   0  0  0  0  0  0  0  0  0  0  0  0
    4.0668   -1.5229    0.0000 H   0  0  0  0  0  0  0  0  0  0  0  0
    4.0668    0.1271    0.0000 H   0  0  0  0  0  0  0  0  0  0  0  0
    2.6378    0.9521    0.0000 H   0  0  0  0  0  0  0  0  0  0  0  0
    1.1019   -2.9456    0.0000 H   0  0  0  0  0  0  0  0  0  0  0  0
    1.6523   -2.4501    0.0000 H   0  0  0  0  0  0  0  0  0  0  0  0
   -1.2400   -4.0623    0.0000 C   0  0  0  0  0  0  0  0  0  0  0  0
   -1.5120   -4.8412    0.0000 H   0  0  0  0  0  0  0  0  0  0  0  0
   -2.0470   -4.2338    0.0000 C   0  0  0  0  0  0  0  0  0  0  0  0
   -2.6631   -4.7825    0.0000 H   0  0  0  0  0  0  0  0  0  0  0  0
   -3.9580   -3.1792    0.0000 H   0  0  0  0  0  0  0  0  0  0  0  0
   -5.0200   -4.1353    0.0000 H   0  0  0  0  0  0  0  0  0  0  0  0
   -5.5075   -5.2781    0.0000 H   0  0  0  0  0  0  0  0  0  0  0  0
   -4.9778   -6.3177    0.0000 H   0  0  0  0  0  0  0  0  0  0  0  0
   -3.9382   -5.7880    0.0000 H   0  0  0  0  0  0  0  0  0  0  0  0
  1  2  1  0  0  0  0
  2  3  1  0  0  0  0
  3  4  2  0  0  0  0
  3  5  1  0  0  0  0
  5  6  1  0  0  0  0
  6  7  2  0  0  0  0
  7  8  1  0  0  0  0
  7  9  1  0  0  0  0
  9 10  1  0  0  0  0
  9 11  2  0  0  0  0
 11 12  1  0  0  0  0
 12 13  1  0  0  0  0
 13 14  1  0  0  0  0
 14 15  1  0  0  0  0
 15 16  1  0  0  0  0
 15 17  2  0  0  0  0
 17 18  1  0  0  0  0
 17 19  1  0  0  0  0
 19 20  1  0  0  0  0
 14 20  2  0  0  0  0
 20 21  1  0  0  0  0
 13 22  1  0  0  0  0
 13 23  1  0  0  0  0
 12 24  1  0  0  0  0
 24 25  2  0  0  0  0
 24 26  1  0  0  0  0
 26 27  1  0  0  0  0
 27 28  1  0  0  0  0
 28 29  2  0  0  0  0
 29 30  1  0  0  0  0
 30 31  2  0  0  0  0
 31 32  1  0  0  0  0
 32 33  2  0  0  0  0
 33 34  1  0  0  0  0
 34 35  1  0  0  0  0
 34 36  2  0  0  0  0
 27 36  1  0  0  0  0
 30 36  1  0  0  0  0
 33 37  1  0  0  0  0
 32 38  1  0  0  0  0
 31 39  1  0  0  0  0
 26 40  1  0  0  0  0
 26 41  1  0  0  0  0
 11 42  1  0  0  0  0
 42 43  1  0  0  0  0
 42 44  2  0  0  0  0
  6 44  1  0  0  0  0
 44 45  1  0  0  0  0
  5 46  1  0  0  0  0
  2 47  1  0  0  0  0
  1 48  1  0  0  0  0
  1 49  1  0  0  0  0
  1 50  1  0  0  0  0
M  END
> <Potency>
1.4204296117065

> <pIC50>
5.84758028253581

> <Outcome>
Active

> <is_active>
1

$$$$

  Mrv1921 08232120312D          

 48 51  0  0  0  0            999 V2000
   -2.8579   -9.0750    0.0000 C   0  0  0  0  0  0  0  0  0  0  0  0
   -2.1434   -8.6625    0.0000 O   0  0  0  0  0  0  0  0  0  0  0  0
   -2.1434   -7.8375    0.0000 C   0  0  0  0  0  0  0  0  0  0  0  0
   -2.8579   -7.4250    0.0000 C   0  0  0  0  0  0  0  0  0  0  0  0
   -3.5724   -7.8375    0.0000 H   0  0  0  0  0  0  0  0  0  0  0  0
   -2.8579   -6.6000    0.0000 C   0  0  0  0  0  0  0  0  0  0  0  0
   -3.5724   -6.1875    0.0000 H   0  0  0  0  0  0  0  0  0  0  0  0
   -2.1434   -6.1875    0.0000 C   0  0  0  0  0  0  0  0  0  0  0  0
   -2.1434   -5.3625    0.0000 H   0  0  0  0  0  0  0  0  0  0  0  0
   -1.4289   -6.6000    0.0000 C   0  0  0  0  0  0  0  0  0  0  0  0
   -0.7145   -6.1875    0.0000 O   0  0  0  0  0  0  0  0  0  0  0  0
   -0.7145   -5.3625    0.0000 C   0  0  0  0  0  0  0  0  0  0  0  0
   -1.4289   -4.9500    0.0000 C   0  0  0  0  0  0  0  0  0  0  0  0
   -1.4289   -5.7750    0.0000 H   0  0  0  0  0  0  0  0  0  0  0  0
   -1.4289   -4.1250    0.0000 C   0  0  0  0  0  0  0  0  0  0  0  0
   -2.1434   -3.7125    0.0000 Cl  0  0  0  0  0  0  0  0  0  0  0  0
   -0.7145   -3.7125    0.0000 C   0  0  0  0  0  0  0  0  0  0  0  0
   -0.7145   -2.8875    0.0000 H   0  0  0  0  0  0  0  0  0  0  0  0
    0.0000   -4.1250    0.0000 C   0  0  0  0  0  0  0  0  0  0  0  0
    0.7145   -3.7125    0.0000 N   0  0  0  0  0  0  0  0  0  0  0  0
    0.7145   -2.8875    0.0000 C   0  0  0  0  0  0  0  0  0  0  0  0
    0.0000   -2.4750    0.0000 O   0  0  0  0  0  0  0  0  0  0  0  0
    1.4289   -2.4750    0.0000 C   0  0  0  0  0  0  0  0  0  0  0  0
    1.4289   -1.6500    0.0000 C   0  0  0  0  0  0  0  0  0  0  0  0
    0.7145   -1.2375    0.0000 C   0  0  0  0  0  0  0  0  0  0  0  0
    0.0000   -1.6500    0.0000 H   0  0  0  0  0  0  0  0  0  0  0  0
    0.7145   -0.4125    0.0000 N   0  0  0  0  0  0  0  0  0  0  0  0
    1.4289    0.0000    0.0000 C   0  0  0  0  0  0  0  0  0  0  0  0
    1.4289    0.8250    0.0000 H   0  0  0  0  0  0  0  0  0  0  0  0
    2.1434   -0.4125    0.0000 C   0  0  0  0  0  0  0  0  0  0  0  0
    2.8579    0.0000    0.0000 C   0  0  0  0  0  0  0  0  0  0  0  0
    3.5724   -0.4125    0.0000 C   0  0  0  0  0  0  0  0  0  0  0  0
    3.5724   -1.2375    0.0000 C   0  0  0  0  0  0  0  0  0  0  0  0
    2.8579   -1.6500    0.0000 C   0  0  0  0  0  0  0  0  0  0  0  0
    2.8579   -2.4750    0.0000 H   0  0  0  0  0  0  0  0  0  0  0  0
    2.1434   -1.2375    0.0000 C   0  0  0  0  0  0  0  0  0  0  0  0
    4.2868   -1.6500    0.0000 H   0  0  0  0  0  0  0  0  0  0  0  0
    4.2868   -0.0000    0.0000 H   0  0  0  0  0  0  0  0  0  0  0  0
    2.8579    0.8250    0.0000 H   0  0  0  0  0  0  0  0  0  0  0  0
    1.8823   -3.1643    0.0000 H   0  0  0  0  0  0  0  0  0  0  0  0
    2.2525   -2.5230    0.0000 H   0  0  0  0  0  0  0  0  0  0  0  0
    1.4289   -4.1250    0.0000 H   0  0  0  0  0  0  0  0  0  0  0  0
    0.0000   -4.9500    0.0000 C   0  0  0  0  0  0  0  0  0  0  0  0
    0.7145   -5.3625    0.0000 H   0  0  0  0  0  0  0  0  0  0  0  0
   -1.4289   -7.4250    0.0000 N   0  0  0  0  0  0  0  0  0  0  0  0
   -3.2704   -8.3605    0.0000 H   0  0  0  0  0  0  0  0  0  0  0  0
   -3.5724   -9.4875    0.0000 H   0  0  0  0  0  0  0  0  0  0  0  0
   -2.4454   -9.7895    0.0000 H   0  0  0  0  0  0  0  0  0  0  0  0
  1  2  1  0  0  0  0
  2  3  1  0  0  0  0
  3  4  2  0  0  0  0
  4  5  1  0  0  0  0
  4  6  1  0  0  0  0
  6  7  1  0  0  0  0
  6  8  2  0  0  0  0
  8  9  1  0  0  0  0
  8 10  1  0  0  0  0
 10 11  1  0  0  0  0
 11 12  1  0  0  0  0
 12 13  2  0  0  0  0
 13 14  1  0  0  0  0
 13 15  1  0  0  0  0
 15 16  1  0  0  0  0
 15 17  2  0  0  0  0
 17 18  1  0  0  0  0
 17 19  1  0  0  0  0
 19 20  1  0  0  0  0
 20 21  1  0  0  0  0
 21 22  2  0  0  0  0
 21 23  1  0  0  0  0
 23 24  1  0  0  0  0
 24 25  2  0  0  0  0
 25 26  1  0  0  0  0
 25 27  1  0  0  0  0
 27 28  2  0  0  0  0
 28 29  1  0  0  0  0
 28 30  1  0  0  0  0
 30 31  2  0  0  0  0
 31 32  1  0  0  0  0
 32 33  2  0  0  0  0
 33 34  1  0  0  0  0
 34 35  1  0  0  0  0
 34 36  2  0  0  0  0
 24 36  1  0  0  0  0
 30 36  1  0  0  0  0
 33 37  1  0  0  0  0
 32 38  1  0  0  0  0
 31 39  1  0  0  0  0
 23 40  1  0  0  0  0
 23 41  1  0  0  0  0
 20 42  1  0  0  0  0
 19 43  2  0  0  0  0
 12 43  1  0  0  0  0
 43 44  1  0  0  0  0
 10 45  2  0  0  0  0
  3 45  1  0  0  0  0
  1 46  1  0  0  0  0
  1 47  1  0  0  0  0
  1 48  1  0  0  0  0
M  END
> <Potency>
3.78368589697231

> <pIC50>
5.422084923769635

> <Outcome>
Active

> <is_active>
1

$$$$

  Mrv1921 08232120312D          

 52 55  0  0  0  0            999 V2000
   -2.1434   -6.1875    0.0000 C   0  0  0  0  0  0  0  0  0  0  0  0
   -1.4289   -6.6000    0.0000 O   0  0  0  0  0  0  0  0  0  0  0  0
   -0.7145   -6.1875    0.0000 C   0  0  0  0  0  0  0  0  0  0  0  0
    0.0000   -6.6000    0.0000 C   0  0  0  0  0  0  0  0  0  0  0  0
    0.0000   -7.4250    0.0000 H   0  0  0  0  0  0  0  0  0  0  0  0
    0.7145   -6.1875    0.0000 C   0  0  0  0  0  0  0  0  0  0  0  0
    1.4289   -6.6000    0.0000 H   0  0  0  0  0  0  0  0  0  0  0  0
    0.7145   -5.3625    0.0000 C   0  0  0  0  0  0  0  0  0  0  0  0
    1.4289   -4.9500    0.0000 H   0  0  0  0  0  0  0  0  0  0  0  0
    0.0000   -4.9500    0.0000 C   0  0  0  0  0  0  0  0  0  0  0  0
    0.0000   -4.1250    0.0000 C   0  0  0  0  0  0  0  0  0  0  0  0
    0.7145   -3.7125    0.0000 C   0  0  0  0  0  0  0  0  0  0  0  0
    0.7145   -2.8875    0.0000 N   0  0  0  0  0  0  0  0  0  0  0  0
    1.4289   -2.4750    0.0000 C   0  0  0  0  0  0  0  0  0  0  0  0
    2.1434   -2.8875    0.0000 O   0  0  0  0  0  0  0  0  0  0  0  0
    1.4289   -1.6500    0.0000 C   0  0  0  0  0  0  0  0  0  0  0  0
    0.7145   -1.2375    0.0000 C   0  0  0  0  0  0  0  0  0  0  0  0
    0.7145   -2.0625    0.0000 H   0  0  0  0  0  0  0  0  0  0  0  0
    0.7145   -0.4125    0.0000 C   0  0  0  0  0  0  0  0  0  0  0  0
    0.0000    0.0000    0.0000 O   0  0  0  0  0  0  0  0  0  0  0  0
    1.4289    0.0000    0.0000 N   0  0  0  0  0  0  0  0  0  0  0  0
    1.4289    0.8250    0.0000 H   0  0  0  0  0  0  0  0  0  0  0  0
    2.1434   -0.4125    0.0000 C   0  0  0  0  0  0  0  0  0  0  0  0
    2.8579    0.0000    0.0000 C   0  0  0  0  0  0  0  0  0  0  0  0
    3.5724   -0.4125    0.0000 C   0  0  0  0  0  0  0  0  0  0  0  0
    3.5724   -1.2375    0.0000 C   0  0  0  0  0  0  0  0  0  0  0  0
    2.8579   -1.6500    0.0000 C   0  0  0  0  0  0  0  0  0  0  0  0
    2.8579   -2.4750    0.0000 H   0  0  0  0  0  0  0  0  0  0  0  0
    2.1434   -1.2375    0.0000 C   0  0  0  0  0  0  0  0  0  0  0  0
    4.2868   -1.6500    0.0000 H   0  0  0  0  0  0  0  0  0  0  0  0
    4.2868   -0.0000    0.0000 H   0  0  0  0  0  0  0  0  0  0  0  0
    2.8579    0.8250    0.0000 H   0  0  0  0  0  0  0  0  0  0  0  0
    0.0000   -2.4750    0.0000 C   0  0  0  0  0  0  0  0  0  0  0  0
   -0.7145   -2.8875    0.0000 C   0  0  0  0  0  0  0  0  0  0  0  0
   -1.3204   -3.4473    0.0000 H   0  0  0  0  0  0  0  0  0  0  0  0
   -1.4289   -2.4750    0.0000 C   0  0  0  0  0  0  0  0  0  0  0  0
   -2.1434   -2.8875    0.0000 H   0  0  0  0  0  0  0  0  0  0  0  0
   -1.4289   -1.6500    0.0000 C   0  0  0  0  0  0  0  0  0  0  0  0
   -2.1434   -1.2375    0.0000 H   0  0  0  0  0  0  0  0  0  0  0  0
   -0.7145   -1.2375    0.0000 C   0  0  0  0  0  0  0  0  0  0  0  0
   -0.7145   -0.4125    0.0000 Cl  0  0  0  0  0  0  0  0  0  0  0  0
    0.0000   -1.6500    0.0000 C   0  0  0  0  0  0  0  0  0  0  0  0
   -0.7145   -2.0625    0.0000 H   0  0  0  0  0  0  0  0  0  0  0  0
    1.1678   -4.4018    0.0000 H   0  0  0  0  0  0  0  0  0  0  0  0
    1.5381   -3.7605    0.0000 H   0  0  0  0  0  0  0  0  0  0  0  0
   -0.4533   -3.4357    0.0000 H   0  0  0  0  0  0  0  0  0  0  0  0
   -0.8236   -4.0770    0.0000 H   0  0  0  0  0  0  0  0  0  0  0  0
   -0.7145   -5.3625    0.0000 C   0  0  0  0  0  0  0  0  0  0  0  0
   -1.4289   -4.9500    0.0000 H   0  0  0  0  0  0  0  0  0  0  0  0
   -1.7309   -5.4730    0.0000 H   0  0  0  0  0  0  0  0  0  0  0  0
   -2.8579   -5.7750    0.0000 H   0  0  0  0  0  0  0  0  0  0  0  0
   -2.5559   -6.9020    0.0000 H   0  0  0  0  0  0  0  0  0  0  0  0
  1  2  1  0  0  0  0
  2  3  1  0  0  0  0
  3  4  2  0  0  0  0
  4  5  1  0  0  0  0
  4  6  1  0  0  0  0
  6  7  1  0  0  0  0
  6  8  2  0  0  0  0
  8  9  1  0  0  0  0
  8 10  1  0  0  0  0
 10 11  1  0  0  0  0
 11 12  1  0  0  0  0
 12 13  1  0  0  0  0
 13 14  1  0  0  0  0
 14 15  2  0  0  0  0
 14 16  1  0  0  0  0
 16 17  4  0  0  0  0
 17 18  1  0  0  0  0
 17 19  4  0  0  0  0
 19 20  2  0  0  0  0
 19 21  4  0  0  0  0
 21 22  1  0  0  0  0
 21 23  4  0  0  0  0
 23 24  4  0  0  0  0
 24 25  4  0  0  0  0
 25 26  4  0  0  0  0
 26 27  4  0  0  0  0
 27 28  1  0  0  0  0
 27 29  4  0  0  0  0
 16 29  4  0  0  0  0
 23 29  4  0  0  0  0
 26 30  1  0  0  0  0
 25 31  1  0  0  0  0
 24 32  1  0  0  0  0
 13 33  1  0  0  0  0
 33 34  2  0  0  0  0
 34 35  1  0  0  0  0
 34 36  1  0  0  0  0
 36 37  1  0  0  0  0
 36 38  2  0  0  0  0
 38 39  1  0  0  0  0
 38 40  1  0  0  0  0
 40 41  1  0  0  0  0
 40 42  2  0  0  0  0
 33 42  1  0  0  0  0
 42 43  1  0  0  0  0
 12 44  1  0  0  0  0
 12 45  1  0  0  0  0
 11 46  1  0  0  0  0
 11 47  1  0  0  0  0
 10 48  2  0  0  0  0
  3 48  1  0  0  0  0
 48 49  1  0  0  0  0
  1 50  1  0  0  0  0
  1 51  1  0  0  0  0
  1 52  1  0  0  0  0
M  END
> <Potency>
4.07314444816202

> <pIC50>
5.3900701880168

> <Outcome>
Active

> <is_active>
1

$$$$

  Mrv1921 08232120312D          

 44 45  0  0  0  0            999 V2000
    3.7934   -1.0164    0.0000 C   0  0  0  0  0  0  0  0  0  0  0  0
    3.0789   -0.6039    0.0000 C   0  0  0  0  0  0  0  0  0  0  0  0
    2.3645   -1.0164    0.0000 N   0  0  0  0  0  0  0  0  0  0  0  0
    2.3645   -1.8414    0.0000 C   0  0  0  0  0  0  0  0  0  0  0  0
    3.0789   -2.2539    0.0000 C   0  0  0  0  0  0  0  0  0  0  0  0
    3.8758   -2.4675    0.0000 H   0  0  0  0  0  0  0  0  0  0  0  0
    3.0789   -3.0789    0.0000 C   0  0  0  0  0  0  0  0  0  0  0  0
    3.7934   -3.4914    0.0000 H   0  0  0  0  0  0  0  0  0  0  0  0
    2.3645   -3.4914    0.0000 C   0  0  0  0  0  0  0  0  0  0  0  0
    2.3645   -4.3164    0.0000 H   0  0  0  0  0  0  0  0  0  0  0  0
    1.6500   -3.0789    0.0000 C   0  0  0  0  0  0  0  0  0  0  0  0
    0.9355   -3.4914    0.0000 H   0  0  0  0  0  0  0  0  0  0  0  0
    1.6500   -2.2539    0.0000 C   0  0  0  0  0  0  0  0  0  0  0  0
    0.9355   -1.8414    0.0000 H   0  0  0  0  0  0  0  0  0  0  0  0
    1.6500   -0.6039    0.0000 S   0  0  0  0  0  0  0  0  0  0  0  0
    0.9355   -0.1914    0.0000 O   0  0  0  0  0  0  0  0  0  0  0  0
    1.2375   -1.3184    0.0000 O   0  0  0  0  0  0  0  0  0  0  0  0
    2.0625    0.1105    0.0000 C   0  0  0  0  0  0  0  0  0  0  0  0
    1.6500    0.8250    0.0000 C   0  0  0  0  0  0  0  0  0  0  0  0
    0.8250    0.8250    0.0000 H   0  0  0  0  0  0  0  0  0  0  0  0
    2.0625    1.5395    0.0000 C   0  0  0  0  0  0  0  0  0  0  0  0
    1.6500    2.2539    0.0000 H   0  0  0  0  0  0  0  0  0  0  0  0
    2.8875    1.5395    0.0000 C   0  0  0  0  0  0  0  0  0  0  0  0
    3.3000    2.2539    0.0000 O   0  0  0  0  0  0  0  0  0  0  0  0
    2.8875    2.9684    0.0000 C   0  0  0  0  0  0  0  0  0  0  0  0
    3.6020    3.3809    0.0000 H   0  0  0  0  0  0  0  0  0  0  0  0
    2.4750    3.6829    0.0000 H   0  0  0  0  0  0  0  0  0  0  0  0
    2.1730    2.5559    0.0000 H   0  0  0  0  0  0  0  0  0  0  0  0
    3.3000    0.8250    0.0000 C   0  0  0  0  0  0  0  0  0  0  0  0
    4.1250    0.8250    0.0000 N   0  0  0  0  0  0  0  0  0  0  0  0
    4.5375    1.5395    0.0000 C   0  0  0  0  0  0  0  0  0  0  0  0
    5.3625    1.5395    0.0000 O   0  0  0  0  0  0  0  0  0  0  0  0
    4.1250    2.2539    0.0000 C   0  0  0  0  0  0  0  0  0  0  0  0
    4.5375    2.9684    0.0000 Cl  0  0  0  0  0  0  0  0  0  0  0  0
    3.7125    1.5395    0.0000 H   0  0  0  0  0  0  0  0  0  0  0  0
    3.7125    2.9684    0.0000 H   0  0  0  0  0  0  0  0  0  0  0  0
    4.5375    0.1105    0.0000 H   0  0  0  0  0  0  0  0  0  0  0  0
    2.8875    0.1105    0.0000 C   0  0  0  0  0  0  0  0  0  0  0  0
    2.4750    0.8250    0.0000 H   0  0  0  0  0  0  0  0  0  0  0  0
    3.7335   -0.1017    0.0000 H   0  0  0  0  0  0  0  0  0  0  0  0
    3.0789   -1.4289    0.0000 H   0  0  0  0  0  0  0  0  0  0  0  0
    3.3809   -1.7309    0.0000 H   0  0  0  0  0  0  0  0  0  0  0  0
    4.5079   -1.4289    0.0000 H   0  0  0  0  0  0  0  0  0  0  0  0
    4.2059   -0.3020    0.0000 H   0  0  0  0  0  0  0  0  0  0  0  0
  1  2  1  0  0  0  0
  2  3  1  0  0  0  0
  3  4  1  0  0  0  0
  4  5  2  0  0  0  0
  5  6  1  0  0  0  0
  5  7  1  0  0  0  0
  7  8  1  0  0  0  0
  7  9  2  0  0  0  0
  9 10  1  0  0  0  0
  9 11  1  0  0  0  0
 11 12  1  0  0  0  0
 11 13  2  0  0  0  0
  4 13  1  0  0  0  0
 13 14  1  0  0  0  0
  3 15  1  0  0  0  0
 15 16  2  0  0  0  0
 15 17  2  0  0  0  0
 15 18  1  0  0  0  0
 18 19  2  0  0  0  0
 19 20  1  0  0  0  0
 19 21  1  0  0  0  0
 21 22  1  0  0  0  0
 21 23  2  0  0  0  0
 23 24  1  0  0  0  0
 24 25  1  0  0  0  0
 25 26  1  0  0  0  0
 25 27  1  0  0  0  0
 25 28  1  0  0  0  0
 23 29  1  0  0  0  0
 29 30  1  0  0  0  0
 30 31  1  0  0  0  0
 31 32  2  0  0  0  0
 31 33  1  0  0  0  0
 33 34  1  0  0  0  0
 33 35  1  0  0  0  0
 33 36  1  0  0  0  0
 30 37  1  0  0  0  0
 29 38  2  0  0  0  0
 18 38  1  0  0  0  0
 38 39  1  0  0  0  0
  2 40  1  0  0  0  0
  2 41  1  0  0  0  0
  1 42  1  0  0  0  0
  1 43  1  0  0  0  0
  1 44  1  0  0  0  0
M  END
> <Potency>
3.22879883713307

> <pIC50>
5.490959011856334

> <Outcome>
Active

> <is_active>
1

$$$$

  Mrv1921 08232120312D          

 65 69  0  0  0  0            999 V2000
    1.5912   -5.8003    0.0000 C   0  0  0  0  0  0  0  0  0  0  0  0
    1.2039   -5.0719    0.0000 O   0  0  0  0  0  0  0  0  0  0  0  0
    1.6410   -4.3723    0.0000 C   0  0  0  0  0  0  0  0  0  0  0  0
    2.4655   -4.4011    0.0000 O   0  0  0  0  0  0  0  0  0  0  0  0
    1.2537   -3.6438    0.0000 C   0  0  0  0  0  0  0  0  0  0  0  0
    1.6909   -2.9442    0.0000 C   0  0  0  0  0  0  0  0  0  0  0  0
    1.3036   -2.2158    0.0000 C   0  0  0  0  0  0  0  0  0  0  0  0
    0.4866   -2.1010    0.0000 N   0  0  0  0  0  0  0  0  0  0  0  0
    0.3434   -1.2885    0.0000 O   0  0  0  0  0  0  0  0  0  0  0  0
    1.0718   -0.9012    0.0000 C   0  0  0  0  0  0  0  0  0  0  0  0
    1.1866   -0.0842    0.0000 H   0  0  0  0  0  0  0  0  0  0  0  0
    1.6653   -1.4743    0.0000 C   0  0  0  0  0  0  0  0  0  0  0  0
    2.4777   -1.3310    0.0000 C   0  0  0  0  0  0  0  0  0  0  0  0
    2.7599   -0.5558    0.0000 N   0  0  0  0  0  0  0  0  0  0  0  0
    3.5724   -0.4125    0.0000 C   0  0  0  0  0  0  0  0  0  0  0  0
    4.1027   -1.0445    0.0000 C   0  0  0  0  0  0  0  0  0  0  0  0
    4.6330   -0.4125    0.0000 C   0  0  0  0  0  0  0  0  0  0  0  0
    5.4454   -0.5558    0.0000 O   0  0  0  0  0  0  0  0  0  0  0  0
    4.3508    0.3627    0.0000 N   0  0  0  0  0  0  0  0  0  0  0  0
    3.5383    0.5060    0.0000 C   0  0  0  0  0  0  0  0  0  0  0  0
    3.0080   -0.1260    0.0000 C   0  0  0  0  0  0  0  0  0  0  0  0
    2.7259    0.6493    0.0000 H   0  0  0  0  0  0  0  0  0  0  0  0
    2.1956    0.0173    0.0000 N   0  0  0  0  0  0  0  0  0  0  0  0
    1.9134    0.7925    0.0000 C   0  0  0  0  0  0  0  0  0  0  0  0
    1.1009    0.9358    0.0000 H   0  0  0  0  0  0  0  0  0  0  0  0
    2.4437    1.4245    0.0000 C   0  0  0  0  0  0  0  0  0  0  0  0
    2.1615    2.1998    0.0000 C   0  0  0  0  0  0  0  0  0  0  0  0
    2.6918    2.8317    0.0000 C   0  0  0  0  0  0  0  0  0  0  0  0
    3.5043    2.6885    0.0000 C   0  0  0  0  0  0  0  0  0  0  0  0
    3.7865    1.9132    0.0000 C   0  0  0  0  0  0  0  0  0  0  0  0
    4.5989    1.7700    0.0000 H   0  0  0  0  0  0  0  0  0  0  0  0
    3.2562    1.2813    0.0000 C   0  0  0  0  0  0  0  0  0  0  0  0
    4.0346    3.3205    0.0000 H   0  0  0  0  0  0  0  0  0  0  0  0
    2.4097    3.6070    0.0000 H   0  0  0  0  0  0  0  0  0  0  0  0
    1.3491    2.3430    0.0000 H   0  0  0  0  0  0  0  0  0  0  0  0
    4.8811    0.9947    0.0000 H   0  0  0  0  0  0  0  0  0  0  0  0
    3.3882   -1.4570    0.0000 C   0  0  0  0  0  0  0  0  0  0  0  0
    4.1027   -1.8695    0.0000 H   0  0  0  0  0  0  0  0  0  0  0  0
    3.6704   -0.6817    0.0000 H   0  0  0  0  0  0  0  0  0  0  0  0
    3.3882   -2.2820    0.0000 C   0  0  0  0  0  0  0  0  0  0  0  0
    2.7089   -2.7502    0.0000 H   0  0  0  0  0  0  0  0  0  0  0  0
    3.4211   -3.1063    0.0000 H   0  0  0  0  0  0  0  0  0  0  0  0
    4.1027   -2.6945    0.0000 O   0  0  0  0  0  0  0  0  0  0  0  0
    4.8171   -2.2820    0.0000 C   0  0  0  0  0  0  0  0  0  0  0  0
    5.5316   -2.6945    0.0000 C   0  0  0  0  0  0  0  0  0  0  0  0
    6.2461   -2.2820    0.0000 C   0  0  0  0  0  0  0  0  0  0  0  0
    6.2461   -1.4570    0.0000 C   0  0  0  0  0  0  0  0  0  0  0  0
    6.9605   -1.0445    0.0000 Cl  0  0  0  0  0  0  0  0  0  0  0  0
    5.5316   -1.0445    0.0000 C   0  0  0  0  0  0  0  0  0  0  0  0
    6.2074   -0.5713    0.0000 H   0  0  0  0  0  0  0  0  0  0  0  0
    4.8171   -1.4570    0.0000 C   0  0  0  0  0  0  0  0  0  0  0  0
    6.9605   -2.6945    0.0000 H   0  0  0  0  0  0  0  0  0  0  0  0
    5.5316   -3.5195    0.0000 H   0  0  0  0  0  0  0  0  0  0  0  0
    4.3422   -0.1160    0.0000 H   0  0  0  0  0  0  0  0  0  0  0  0
    3.2902   -1.1877    0.0000 H   0  0  0  0  0  0  0  0  0  0  0  0
    1.9538   -0.7312    0.0000 H   0  0  0  0  0  0  0  0  0  0  0  0
    2.1166   -2.0728    0.0000 H   0  0  0  0  0  0  0  0  0  0  0  0
    2.8661   -2.0589    0.0000 H   0  0  0  0  0  0  0  0  0  0  0  0
    2.4148   -3.3400    0.0000 H   0  0  0  0  0  0  0  0  0  0  0  0
    2.4406   -2.5999    0.0000 H   0  0  0  0  0  0  0  0  0  0  0  0
    0.5299   -3.2481    0.0000 H   0  0  0  0  0  0  0  0  0  0  0  0
    0.5040   -3.9881    0.0000 H   0  0  0  0  0  0  0  0  0  0  0  0
    0.8627   -6.1877    0.0000 H   0  0  0  0  0  0  0  0  0  0  0  0
    1.9785   -6.5288    0.0000 H   0  0  0  0  0  0  0  0  0  0  0  0
    2.3196   -5.4130    0.0000 H   0  0  0  0  0  0  0  0  0  0  0  0
  1  2  1  0  0  0  0
  2  3  1  0  0  0  0
  3  4  2  0  0  0  0
  3  5  1  0  0  0  0
  5  6  1  0  0  0  0
  6  7  1  0  0  0  0
  7  8  2  0  0  0  0
  8  9  1  0  0  0  0
  9 10  1  0  0  0  0
 10 11  1  0  0  0  0
 10 12  2  0  0  0  0
  7 12  1  0  0  0  0
 12 13  1  0  0  0  0
 13 14  1  0  0  0  0
 14 15  1  0  0  0  0
 15 16  1  0  0  0  0
 16 17  1  0  0  0  0
 17 18  2  0  0  0  0
 17 19  1  0  0  0  0
 19 20  1  0  0  0  0
 20 21  2  0  0  0  0
 21 22  1  0  0  0  0
 21 23  1  0  0  0  0
 23 24  2  0  0  0  0
 24 25  1  0  0  0  0
 24 26  1  0  0  0  0
 26 27  2  0  0  0  0
 27 28  1  0  0  0  0
 28 29  2  0  0  0  0
 29 30  1  0  0  0  0
 30 31  1  0  0  0  0
 30 32  2  0  0  0  0
 20 32  1  0  0  0  0
 26 32  1  0  0  0  0
 29 33  1  0  0  0  0
 28 34  1  0  0  0  0
 27 35  1  0  0  0  0
 19 36  1  0  0  0  0
 16 37  1  0  0  0  0
 37 38  1  0  0  0  0
 37 39  1  0  0  0  0
 37 40  1  0  0  0  0
 40 41  1  0  0  0  0
 40 42  1  0  0  0  0
 40 43  1  0  0  0  0
 43 44  1  0  0  0  0
 44 45  2  0  0  0  0
 45 46  1  0  0  0  0
 46 47  2  0  0  0  0
 47 48  1  0  0  0  0
 47 49  1  0  0  0  0
 49 50  1  0  0  0  0
 49 51  2  0  0  0  0
 16 51  1  0  0  0  0
 44 51  1  0  0  0  0
 46 52  1  0  0  0  0
 45 53  1  0  0  0  0
 15 54  1  0  0  0  0
 15 55  1  0  0  0  0
 14 56  1  0  0  0  0
 13 57  1  0  0  0  0
 13 58  1  0  0  0  0
  6 59  1  0  0  0  0
  6 60  1  0  0  0  0
  5 61  1  0  0  0  0
  5 62  1  0  0  0  0
  1 63  1  0  0  0  0
  1 64  1  0  0  0  0
  1 65  1  0  0  0  0
M  END
> <Potency>
2.51404313875924

> <pIC50>
5.5996272744764894

> <Outcome>
Active

> <is_active>
1

$$$$

  Mrv1921 08232120312D          

 47 50  0  0  0  0            999 V2000
    2.8579   -0.8250    0.0000 C   0  0  0  0  0  0  0  0  0  0  0  0
    3.5724   -0.4125    0.0000 S   0  0  0  0  0  0  0  0  0  0  0  0
    3.9849   -1.1270    0.0000 O   0  0  0  0  0  0  0  0  0  0  0  0
    3.1599    0.3020    0.0000 O   0  0  0  0  0  0  0  0  0  0  0  0
    4.2868    0.0000    0.0000 C   0  0  0  0  0  0  0  0  0  0  0  0
    4.2868    0.8250    0.0000 C   0  0  0  0  0  0  0  0  0  0  0  0
    3.5724    1.2375    0.0000 H   0  0  0  0  0  0  0  0  0  0  0  0
    5.0013    1.2375    0.0000 C   0  0  0  0  0  0  0  0  0  0  0  0
    5.7158    1.6500    0.0000 H   0  0  0  0  0  0  0  0  0  0  0  0
    5.7158    0.8250    0.0000 C   0  0  0  0  0  0  0  0  0  0  0  0
    6.4302    1.2375    0.0000 C   0  0  0  0  0  0  0  0  0  0  0  0
    6.4302    2.0625    0.0000 N   0  0  0  0  0  0  0  0  0  0  0  0
    5.7158    2.4750    0.0000 C   0  0  0  0  0  0  0  0  0  0  0  0
    5.0013    2.0625    0.0000 O   0  0  0  0  0  0  0  0  0  0  0  0
    5.7158    3.3000    0.0000 C   0  0  0  0  0  0  0  0  0  0  0  0
    5.0013    3.7125    0.0000 C   0  0  0  0  0  0  0  0  0  0  0  0
    4.1777    3.6645    0.0000 H   0  0  0  0  0  0  0  0  0  0  0  0
    4.5480    3.0232    0.0000 H   0  0  0  0  0  0  0  0  0  0  0  0
    5.0013    4.5375    0.0000 C   0  0  0  0  0  0  0  0  0  0  0  0
    4.5480    5.2268    0.0000 H   0  0  0  0  0  0  0  0  0  0  0  0
    4.1777    4.5855    0.0000 H   0  0  0  0  0  0  0  0  0  0  0  0
    5.7158    4.9500    0.0000 S   0  0  0  0  0  0  0  0  0  0  0  0
    5.1855    5.5820    0.0000 O   0  0  0  0  0  0  0  0  0  0  0  0
    6.2461    5.5820    0.0000 O   0  0  0  0  0  0  0  0  0  0  0  0
    6.4302    4.5375    0.0000 C   0  0  0  0  0  0  0  0  0  0  0  0
    7.1447    4.9500    0.0000 C   0  0  0  0  0  0  0  0  0  0  0  0
    7.8592    4.5375    0.0000 C   0  0  0  0  0  0  0  0  0  0  0  0
    7.8592    3.7125    0.0000 C   0  0  0  0  0  0  0  0  0  0  0  0
    8.5737    3.3000    0.0000 Cl  0  0  0  0  0  0  0  0  0  0  0  0
    7.1447    3.3000    0.0000 C   0  0  0  0  0  0  0  0  0  0  0  0
    7.1447    4.1250    0.0000 H   0  0  0  0  0  0  0  0  0  0  0  0
    6.4302    3.7125    0.0000 C   0  0  0  0  0  0  0  0  0  0  0  0
    8.5737    4.9500    0.0000 H   0  0  0  0  0  0  0  0  0  0  0  0
    7.1447    5.7750    0.0000 H   0  0  0  0  0  0  0  0  0  0  0  0
    6.4302    2.8875    0.0000 H   0  0  0  0  0  0  0  0  0  0  0  0
    7.1447    2.4750    0.0000 H   0  0  0  0  0  0  0  0  0  0  0  0
    7.1447    0.8250    0.0000 C   0  0  0  0  0  0  0  0  0  0  0  0
    7.1447    0.0000    0.0000 N   0  0  0  0  0  0  0  0  0  0  0  0
    6.4302   -0.4125    0.0000 C   0  0  0  0  0  0  0  0  0  0  0  0
    6.4302   -1.2375    0.0000 H   0  0  0  0  0  0  0  0  0  0  0  0
    5.7158    0.0000    0.0000 C   0  0  0  0  0  0  0  0  0  0  0  0
    5.0013   -0.4125    0.0000 C   0  0  0  0  0  0  0  0  0  0  0  0
    5.0013   -1.2375    0.0000 H   0  0  0  0  0  0  0  0  0  0  0  0
    7.8592    1.2375    0.0000 H   0  0  0  0  0  0  0  0  0  0  0  0
    2.4454   -0.1105    0.0000 H   0  0  0  0  0  0  0  0  0  0  0  0
    2.1434   -1.2375    0.0000 H   0  0  0  0  0  0  0  0  0  0  0  0
    3.2704   -1.5395    0.0000 H   0  0  0  0  0  0  0  0  0  0  0  0
  1  2  1  0  0  0  0
  2  3  2  0  0  0  0
  2  4  2  0  0  0  0
  2  5  1  0  0  0  0
  5  6  2  0  0  0  0
  6  7  1  0  0  0  0
  6  8  1  0  0  0  0
  8  9  1  0  0  0  0
  8 10  2  0  0  0  0
 10 11  1  0  0  0  0
 11 12  1  0  0  0  0
 12 13  1  0  0  0  0
 13 14  2  0  0  0  0
 13 15  1  0  0  0  0
 15 16  1  0  0  0  0
 16 17  1  0  0  0  0
 16 18  1  0  0  0  0
 16 19  1  0  0  0  0
 19 20  1  0  0  0  0
 19 21  1  0  0  0  0
 19 22  1  0  0  0  0
 22 23  2  0  0  0  0
 22 24  2  0  0  0  0
 22 25  1  0  0  0  0
 25 26  2  0  0  0  0
 26 27  1  0  0  0  0
 27 28  2  0  0  0  0
 28 29  1  0  0  0  0
 28 30  1  0  0  0  0
 30 31  1  0  0  0  0
 30 32  2  0  0  0  0
 15 32  1  0  0  0  0
 25 32  1  0  0  0  0
 27 33  1  0  0  0  0
 26 34  1  0  0  0  0
 15 35  1  0  0  0  0
 12 36  1  0  0  0  0
 11 37  2  0  0  0  0
 37 38  1  0  0  0  0
 38 39  2  0  0  0  0
 39 40  1  0  0  0  0
 39 41  1  0  0  0  0
 10 41  1  0  0  0  0
 41 42  2  0  0  0  0
  5 42  1  0  0  0  0
 42 43  1  0  0  0  0
 37 44  1  0  0  0  0
  1 45  1  0  0  0  0
  1 46  1  0  0  0  0
  1 47  1  0  0  0  0
M  END
> <Potency>
0.744089673300504

> <pIC50>
6.128374722689604

> <Outcome>
Active

> <is_active>
1

$$$$

  Mrv1921 08232120312D          

 69 74  0  0  0  0            999 V2000
   -2.0776   -3.4644    0.0000 C   0  0  0  0  0  0  0  0  0  0  0  0
   -1.2651   -3.3211    0.0000 N   0  0  0  0  0  0  0  0  0  0  0  0
   -0.9034   -2.5796    0.0000 C   0  0  0  0  0  0  0  0  0  0  0  0
   -1.2908   -1.8512    0.0000 H   0  0  0  0  0  0  0  0  0  0  0  0
   -0.0865   -2.6944    0.0000 C   0  0  0  0  0  0  0  0  0  0  0  0
    0.4866   -2.1010    0.0000 N   0  0  0  0  0  0  0  0  0  0  0  0
    0.3434   -1.2885    0.0000 C   0  0  0  0  0  0  0  0  0  0  0  0
   -0.1416   -0.6210    0.0000 H   0  0  0  0  0  0  0  0  0  0  0  0
   -0.4811   -1.3173    0.0000 H   0  0  0  0  0  0  0  0  0  0  0  0
    1.0718   -0.9012    0.0000 C   0  0  0  0  0  0  0  0  0  0  0  0
    1.5567   -0.2337    0.0000 H   0  0  0  0  0  0  0  0  0  0  0  0
    0.7896   -0.1259    0.0000 H   0  0  0  0  0  0  0  0  0  0  0  0
    1.6653   -1.4743    0.0000 C   0  0  0  0  0  0  0  0  0  0  0  0
    2.4777   -1.3310    0.0000 C   0  0  0  0  0  0  0  0  0  0  0  0
    2.7599   -0.5558    0.0000 N   0  0  0  0  0  0  0  0  0  0  0  0
    3.5724   -0.4125    0.0000 C   0  0  0  0  0  0  0  0  0  0  0  0
    4.1027   -1.0445    0.0000 C   0  0  0  0  0  0  0  0  0  0  0  0
    4.6330   -0.4125    0.0000 C   0  0  0  0  0  0  0  0  0  0  0  0
    5.4454   -0.5558    0.0000 O   0  0  0  0  0  0  0  0  0  0  0  0
    4.3508    0.3627    0.0000 N   0  0  0  0  0  0  0  0  0  0  0  0
    3.5383    0.5060    0.0000 C   0  0  0  0  0  0  0  0  0  0  0  0
    3.0080   -0.1260    0.0000 C   0  0  0  0  0  0  0  0  0  0  0  0
    2.7259    0.6493    0.0000 H   0  0  0  0  0  0  0  0  0  0  0  0
    2.1956    0.0173    0.0000 N   0  0  0  0  0  0  0  0  0  0  0  0
    1.9134    0.7925    0.0000 C   0  0  0  0  0  0  0  0  0  0  0  0
    1.1009    0.9358    0.0000 H   0  0  0  0  0  0  0  0  0  0  0  0
    2.4437    1.4245    0.0000 C   0  0  0  0  0  0  0  0  0  0  0  0
    2.1615    2.1998    0.0000 C   0  0  0  0  0  0  0  0  0  0  0  0
    2.6918    2.8317    0.0000 C   0  0  0  0  0  0  0  0  0  0  0  0
    3.5043    2.6885    0.0000 C   0  0  0  0  0  0  0  0  0  0  0  0
    3.7865    1.9132    0.0000 C   0  0  0  0  0  0  0  0  0  0  0  0
    4.5989    1.7700    0.0000 H   0  0  0  0  0  0  0  0  0  0  0  0
    3.2562    1.2813    0.0000 C   0  0  0  0  0  0  0  0  0  0  0  0
    4.0346    3.3205    0.0000 H   0  0  0  0  0  0  0  0  0  0  0  0
    2.4097    3.6070    0.0000 H   0  0  0  0  0  0  0  0  0  0  0  0
    1.3491    2.3430    0.0000 H   0  0  0  0  0  0  0  0  0  0  0  0
    4.8811    0.9947    0.0000 H   0  0  0  0  0  0  0  0  0  0  0  0
    3.3882   -1.4570    0.0000 C   0  0  0  0  0  0  0  0  0  0  0  0
    4.1027   -1.8695    0.0000 H   0  0  0  0  0  0  0  0  0  0  0  0
    3.6704   -0.6817    0.0000 H   0  0  0  0  0  0  0  0  0  0  0  0
    3.3882   -2.2820    0.0000 C   0  0  0  0  0  0  0  0  0  0  0  0
    2.6948   -2.7290    0.0000 H   0  0  0  0  0  0  0  0  0  0  0  0
    3.4084   -3.1067    0.0000 H   0  0  0  0  0  0  0  0  0  0  0  0
    4.1027   -2.6945    0.0000 O   0  0  0  0  0  0  0  0  0  0  0  0
    4.8171   -2.2820    0.0000 C   0  0  0  0  0  0  0  0  0  0  0  0
    5.5316   -2.6945    0.0000 C   0  0  0  0  0  0  0  0  0  0  0  0
    6.2461   -2.2820    0.0000 C   0  0  0  0  0  0  0  0  0  0  0  0
    6.2461   -1.4570    0.0000 C   0  0  0  0  0  0  0  0  0  0  0  0
    6.9605   -1.0445    0.0000 Cl  0  0  0  0  0  0  0  0  0  0  0  0
    5.5316   -1.0445    0.0000 C   0  0  0  0  0  0  0  0  0  0  0  0
    6.2074   -0.5713    0.0000 H   0  0  0  0  0  0  0  0  0  0  0  0
    4.8171   -1.4570    0.0000 C   0  0  0  0  0  0  0  0  0  0  0  0
    6.9605   -2.6945    0.0000 H   0  0  0  0  0  0  0  0  0  0  0  0
    5.5316   -3.5195    0.0000 H   0  0  0  0  0  0  0  0  0  0  0  0
    4.3965   -0.4503    0.0000 H   0  0  0  0  0  0  0  0  0  0  0  0
    4.1583    0.1683    0.0000 H   0  0  0  0  0  0  0  0  0  0  0  0
    3.2902   -1.1877    0.0000 H   0  0  0  0  0  0  0  0  0  0  0  0
    1.9474   -0.6990    0.0000 H   0  0  0  0  0  0  0  0  0  0  0  0
    2.8941   -2.0432    0.0000 H   0  0  0  0  0  0  0  0  0  0  0  0
    2.1618   -2.1331    0.0000 H   0  0  0  0  0  0  0  0  0  0  0  0
    1.3036   -2.2158    0.0000 C   0  0  0  0  0  0  0  0  0  0  0  0
    0.9846   -2.9766    0.0000 H   0  0  0  0  0  0  0  0  0  0  0  0
    1.5891   -2.9898    0.0000 H   0  0  0  0  0  0  0  0  0  0  0  0
    0.0568   -3.5069    0.0000 C   0  0  0  0  0  0  0  0  0  0  0  0
    0.7983   -3.8685    0.0000 H   0  0  0  0  0  0  0  0  0  0  0  0
   -0.6716   -3.8942    0.0000 N   0  0  0  0  0  0  0  0  0  0  0  0
   -2.2208   -2.6519    0.0000 H   0  0  0  0  0  0  0  0  0  0  0  0
   -2.8900   -3.6076    0.0000 H   0  0  0  0  0  0  0  0  0  0  0  0
   -1.9343   -4.2768    0.0000 H   0  0  0  0  0  0  0  0  0  0  0  0
  1  2  1  0  0  0  0
  2  3  1  0  0  0  0
  3  4  1  0  0  0  0
  3  5  2  0  0  0  0
  5  6  1  0  0  0  0
  6  7  1  0  0  0  0
  7  8  1  0  0  0  0
  7  9  1  0  0  0  0
  7 10  1  0  0  0  0
 10 11  1  0  0  0  0
 10 12  1  0  0  0  0
 10 13  1  0  0  0  0
 13 14  1  0  0  0  0
 14 15  1  0  0  0  0
 15 16  1  0  0  0  0
 16 17  1  0  0  0  0
 17 18  1  0  0  0  0
 18 19  2  0  0  0  0
 18 20  1  0  0  0  0
 20 21  1  0  0  0  0
 21 22  2  0  0  0  0
 22 23  1  0  0  0  0
 22 24  1  0  0  0  0
 24 25  2  0  0  0  0
 25 26  1  0  0  0  0
 25 27  1  0  0  0  0
 27 28  2  0  0  0  0
 28 29  1  0  0  0  0
 29 30  2  0  0  0  0
 30 31  1  0  0  0  0
 31 32  1  0  0  0  0
 31 33  2  0  0  0  0
 21 33  1  0  0  0  0
 27 33  1  0  0  0  0
 30 34  1  0  0  0  0
 29 35  1  0  0  0  0
 28 36  1  0  0  0  0
 20 37  1  0  0  0  0
 17 38  1  0  0  0  0
 38 39  1  0  0  0  0
 38 40  1  0  0  0  0
 38 41  1  0  0  0  0
 41 42  1  0  0  0  0
 41 43  1  0  0  0  0
 41 44  1  0  0  0  0
 44 45  1  0  0  0  0
 45 46  2  0  0  0  0
 46 47  1  0  0  0  0
 47 48  2  0  0  0  0
 48 49  1  0  0  0  0
 48 50  1  0  0  0  0
 50 51  1  0  0  0  0
 50 52  2  0  0  0  0
 17 52  1  0  0  0  0
 45 52  1  0  0  0  0
 47 53  1  0  0  0  0
 46 54  1  0  0  0  0
 16 55  1  0  0  0  0
 16 56  1  0  0  0  0
 15 57  1  0  0  0  0
 14 58  1  0  0  0  0
 14 59  1  0  0  0  0
 13 60  1  0  0  0  0
 13 61  1  0  0  0  0
  6 61  1  0  0  0  0
 61 62  1  0  0  0  0
 61 63  1  0  0  0  0
  5 64  1  0  0  0  0
 64 65  1  0  0  0  0
 64 66  2  0  0  0  0
  2 66  1  0  0  0  0
  1 67  1  0  0  0  0
  1 68  1  0  0  0  0
  1 69  1  0  0  0  0
M  END
> <Potency>
5.37454760386402

> <pIC50>
5.2696580860940685

> <Outcome>
Active

> <is_active>
1

$$$$

  Mrv1921 08232120312D          

 47 50  0  0  0  0            999 V2000
    2.8579   -6.6000    0.0000 N   0  0  0  0  0  0  0  0  0  0  0  0
    2.1434   -6.1875    0.0000 C   0  0  0  0  0  0  0  0  0  0  0  0
    1.4289   -6.6000    0.0000 O   0  0  0  0  0  0  0  0  0  0  0  0
    2.1434   -5.3625    0.0000 C   0  0  0  0  0  0  0  0  0  0  0  0
    1.4289   -4.9500    0.0000 N   0  0  0  0  0  0  0  0  0  0  0  0
    0.7145   -5.3625    0.0000 C   0  0  0  0  0  0  0  0  0  0  0  0
    0.3442   -6.0997    0.0000 H   0  0  0  0  0  0  0  0  0  0  0  0
    1.0847   -6.0997    0.0000 H   0  0  0  0  0  0  0  0  0  0  0  0
    0.0000   -4.9500    0.0000 C   0  0  0  0  0  0  0  0  0  0  0  0
   -0.7145   -5.3625    0.0000 C   0  0  0  0  0  0  0  0  0  0  0  0
   -1.4289   -4.9500    0.0000 C   0  0  0  0  0  0  0  0  0  0  0  0
   -1.4289   -4.1250    0.0000 C   0  0  0  0  0  0  0  0  0  0  0  0
   -2.1434   -3.7125    0.0000 Cl  0  0  0  0  0  0  0  0  0  0  0  0
   -0.7145   -3.7125    0.0000 C   0  0  0  0  0  0  0  0  0  0  0  0
   -0.7145   -2.8875    0.0000 H   0  0  0  0  0  0  0  0  0  0  0  0
    0.0000   -4.1250    0.0000 C   0  0  0  0  0  0  0  0  0  0  0  0
    0.7145   -3.7125    0.0000 C   0  0  0  0  0  0  0  0  0  0  0  0
    0.7145   -2.8875    0.0000 C   0  0  0  0  0  0  0  0  0  0  0  0
    0.0000   -2.4750    0.0000 O   0  0  0  0  0  0  0  0  0  0  0  0
    1.4289   -2.4750    0.0000 N   0  0  0  0  0  0  0  0  0  0  0  0
    1.4289   -1.6500    0.0000 C   0  0  0  0  0  0  0  0  0  0  0  0
    0.7145   -1.2375    0.0000 C   0  0  0  0  0  0  0  0  0  0  0  0
    0.0000   -1.6500    0.0000 H   0  0  0  0  0  0  0  0  0  0  0  0
    0.7145   -0.4125    0.0000 N   0  0  0  0  0  0  0  0  0  0  0  0
    1.4289    0.0000    0.0000 C   0  0  0  0  0  0  0  0  0  0  0  0
    1.4289    0.8250    0.0000 H   0  0  0  0  0  0  0  0  0  0  0  0
    2.1434   -0.4125    0.0000 C   0  0  0  0  0  0  0  0  0  0  0  0
    2.8579    0.0000    0.0000 C   0  0  0  0  0  0  0  0  0  0  0  0
    3.5724   -0.4125    0.0000 C   0  0  0  0  0  0  0  0  0  0  0  0
    3.5724   -1.2375    0.0000 C   0  0  0  0  0  0  0  0  0  0  0  0
    2.8579   -1.6500    0.0000 C   0  0  0  0  0  0  0  0  0  0  0  0
    2.8579   -2.4750    0.0000 H   0  0  0  0  0  0  0  0  0  0  0  0
    2.1434   -1.2375    0.0000 C   0  0  0  0  0  0  0  0  0  0  0  0
    4.2868   -1.6500    0.0000 H   0  0  0  0  0  0  0  0  0  0  0  0
    4.2868   -0.0000    0.0000 H   0  0  0  0  0  0  0  0  0  0  0  0
    2.8579    0.8250    0.0000 H   0  0  0  0  0  0  0  0  0  0  0  0
    2.2539   -2.4750    0.0000 H   0  0  0  0  0  0  0  0  0  0  0  0
    1.4289   -3.3000    0.0000 H   0  0  0  0  0  0  0  0  0  0  0  0
    1.4289   -4.1250    0.0000 C   0  0  0  0  0  0  0  0  0  0  0  0
    2.2042   -4.4072    0.0000 H   0  0  0  0  0  0  0  0  0  0  0  0
    2.2042   -3.8428    0.0000 H   0  0  0  0  0  0  0  0  0  0  0  0
   -2.1434   -5.3625    0.0000 H   0  0  0  0  0  0  0  0  0  0  0  0
   -0.7145   -6.1875    0.0000 H   0  0  0  0  0  0  0  0  0  0  0  0
    2.9670   -5.3145    0.0000 H   0  0  0  0  0  0  0  0  0  0  0  0
    2.5968   -4.6732    0.0000 H   0  0  0  0  0  0  0  0  0  0  0  0
    2.8579   -7.4250    0.0000 H   0  0  0  0  0  0  0  0  0  0  0  0
    3.5724   -6.1875    0.0000 H   0  0  0  0  0  0  0  0  0  0  0  0
  1  2  1  0  0  0  0
  2  3  2  0  0  0  0
  2  4  1  0  0  0  0
  4  5  1  0  0  0  0
  5  6  1  0  0  0  0
  6  7  1  0  0  0  0
  6  8  1  0  0  0  0
  6  9  1  0  0  0  0
  9 10  2  0  0  0  0
 10 11  1  0  0  0  0
 11 12  2  0  0  0  0
 12 13  1  0  0  0  0
 12 14  1  0  0  0  0
 14 15  1  0  0  0  0
 14 16  2  0  0  0  0
  9 16  1  0  0  0  0
 16 17  1  0  0  0  0
 17 18  1  0  0  0  0
 18 19  2  0  0  0  0
 18 20  1  0  0  0  0
 20 21  1  0  0  0  0
 21 22  2  0  0  0  0
 22 23  1  0  0  0  0
 22 24  1  0  0  0  0
 24 25  2  0  0  0  0
 25 26  1  0  0  0  0
 25 27  1  0  0  0  0
 27 28  2  0  0  0  0
 28 29  1  0  0  0  0
 29 30  2  0  0  0  0
 30 31  1  0  0  0  0
 31 32  1  0  0  0  0
 31 33  2  0  0  0  0
 21 33  1  0  0  0  0
 27 33  1  0  0  0  0
 30 34  1  0  0  0  0
 29 35  1  0  0  0  0
 28 36  1  0  0  0  0
 20 37  1  0  0  0  0
 17 38  1  0  0  0  0
 17 39  1  0  0  0  0
  5 39  1  0  0  0  0
 39 40  1  0  0  0  0
 39 41  1  0  0  0  0
 11 42  1  0  0  0  0
 10 43  1  0  0  0  0
  4 44  1  0  0  0  0
  4 45  1  0  0  0  0
  1 46  1  0  0  0  0
  1 47  1  0  0  0  0
M  END
> <Potency>
0.11350396351663

> <pIC50>
6.944988972802603

> <Outcome>
Active

> <is_active>
1

$$$$

  Mrv1921 08232120312D          

 46 49  0  0  0  0            999 V2000
    3.5724   -7.0125    0.0000 N   0  0  0  0  0  0  0  0  0  0  0  0
    2.8579   -6.6000    0.0000 C   0  0  0  0  0  0  0  0  0  0  0  0
    2.1434   -6.1875    0.0000 C   0  0  0  0  0  0  0  0  0  0  0  0
    2.1434   -5.3625    0.0000 C   0  0  0  0  0  0  0  0  0  0  0  0
    2.8579   -4.9500    0.0000 O   0  0  0  0  0  0  0  0  0  0  0  0
    1.4289   -4.9500    0.0000 N   0  0  0  0  0  0  0  0  0  0  0  0
    0.7145   -5.3625    0.0000 C   0  0  0  0  0  0  0  0  0  0  0  0
    0.3442   -6.0997    0.0000 H   0  0  0  0  0  0  0  0  0  0  0  0
    1.0847   -6.0997    0.0000 H   0  0  0  0  0  0  0  0  0  0  0  0
    0.0000   -4.9500    0.0000 C   0  0  0  0  0  0  0  0  0  0  0  0
   -0.7145   -5.3625    0.0000 C   0  0  0  0  0  0  0  0  0  0  0  0
   -1.4289   -4.9500    0.0000 C   0  0  0  0  0  0  0  0  0  0  0  0
   -1.4289   -4.1250    0.0000 C   0  0  0  0  0  0  0  0  0  0  0  0
   -2.1434   -3.7125    0.0000 Cl  0  0  0  0  0  0  0  0  0  0  0  0
   -0.7145   -3.7125    0.0000 C   0  0  0  0  0  0  0  0  0  0  0  0
   -0.7145   -2.8875    0.0000 H   0  0  0  0  0  0  0  0  0  0  0  0
    0.0000   -4.1250    0.0000 C   0  0  0  0  0  0  0  0  0  0  0  0
    0.7145   -3.7125    0.0000 C   0  0  0  0  0  0  0  0  0  0  0  0
    0.7145   -2.8875    0.0000 C   0  0  0  0  0  0  0  0  0  0  0  0
    0.0000   -2.4750    0.0000 O   0  0  0  0  0  0  0  0  0  0  0  0
    1.4289   -2.4750    0.0000 N   0  0  0  0  0  0  0  0  0  0  0  0
    1.4289   -1.6500    0.0000 C   0  0  0  0  0  0  0  0  0  0  0  0
    0.7145   -1.2375    0.0000 C   0  0  0  0  0  0  0  0  0  0  0  0
    0.0000   -1.6500    0.0000 H   0  0  0  0  0  0  0  0  0  0  0  0
    0.7145   -0.4125    0.0000 N   0  0  0  0  0  0  0  0  0  0  0  0
    1.4289    0.0000    0.0000 C   0  0  0  0  0  0  0  0  0  0  0  0
    1.4289    0.8250    0.0000 H   0  0  0  0  0  0  0  0  0  0  0  0
    2.1434   -0.4125    0.0000 C   0  0  0  0  0  0  0  0  0  0  0  0
    2.8579    0.0000    0.0000 C   0  0  0  0  0  0  0  0  0  0  0  0
    3.5724   -0.4125    0.0000 C   0  0  0  0  0  0  0  0  0  0  0  0
    3.5724   -1.2375    0.0000 C   0  0  0  0  0  0  0  0  0  0  0  0
    2.8579   -1.6500    0.0000 C   0  0  0  0  0  0  0  0  0  0  0  0
    2.8579   -2.4750    0.0000 H   0  0  0  0  0  0  0  0  0  0  0  0
    2.1434   -1.2375    0.0000 C   0  0  0  0  0  0  0  0  0  0  0  0
    4.2868   -1.6500    0.0000 H   0  0  0  0  0  0  0  0  0  0  0  0
    4.2868   -0.0000    0.0000 H   0  0  0  0  0  0  0  0  0  0  0  0
    2.8579    0.8250    0.0000 H   0  0  0  0  0  0  0  0  0  0  0  0
    2.2539   -2.4750    0.0000 H   0  0  0  0  0  0  0  0  0  0  0  0
    1.4289   -3.3000    0.0000 H   0  0  0  0  0  0  0  0  0  0  0  0
    1.4289   -4.1250    0.0000 C   0  0  0  0  0  0  0  0  0  0  0  0
    2.2042   -4.4072    0.0000 H   0  0  0  0  0  0  0  0  0  0  0  0
    2.2042   -3.8428    0.0000 H   0  0  0  0  0  0  0  0  0  0  0  0
   -2.1434   -5.3625    0.0000 H   0  0  0  0  0  0  0  0  0  0  0  0
   -0.7145   -6.1875    0.0000 H   0  0  0  0  0  0  0  0  0  0  0  0
    1.3198   -6.2355    0.0000 H   0  0  0  0  0  0  0  0  0  0  0  0
    1.6901   -6.8768    0.0000 H   0  0  0  0  0  0  0  0  0  0  0  0
  1  2  3  0  0  0  0
  2  3  1  0  0  0  0
  3  4  1  0  0  0  0
  4  5  2  0  0  0  0
  4  6  1  0  0  0  0
  6  7  1  0  0  0  0
  7  8  1  0  0  0  0
  7  9  1  0  0  0  0
  7 10  1  0  0  0  0
 10 11  2  0  0  0  0
 11 12  1  0  0  0  0
 12 13  2  0  0  0  0
 13 14  1  0  0  0  0
 13 15  1  0  0  0  0
 15 16  1  0  0  0  0
 15 17  2  0  0  0  0
 10 17  1  0  0  0  0
 17 18  1  0  0  0  0
 18 19  1  0  0  0  0
 19 20  2  0  0  0  0
 19 21  1  0  0  0  0
 21 22  1  0  0  0  0
 22 23  2  0  0  0  0
 23 24  1  0  0  0  0
 23 25  1  0  0  0  0
 25 26  2  0  0  0  0
 26 27  1  0  0  0  0
 26 28  1  0  0  0  0
 28 29  2  0  0  0  0
 29 30  1  0  0  0  0
 30 31  2  0  0  0  0
 31 32  1  0  0  0  0
 32 33  1  0  0  0  0
 32 34  2  0  0  0  0
 22 34  1  0  0  0  0
 28 34  1  0  0  0  0
 31 35  1  0  0  0  0
 30 36  1  0  0  0  0
 29 37  1  0  0  0  0
 21 38  1  0  0  0  0
 18 39  1  0  0  0  0
 18 40  1  0  0  0  0
  6 40  1  0  0  0  0
 40 41  1  0  0  0  0
 40 42  1  0  0  0  0
 12 43  1  0  0  0  0
 11 44  1  0  0  0  0
  3 45  1  0  0  0  0
  3 46  1  0  0  0  0
M  END
> <Potency>
0.203655002440072

> <pIC50>
6.691104917738863

> <Outcome>
Active

> <is_active>
1

$$$$

  Mrv1921 08232120312D          

 49 52  0  0  0  0            999 V2000
   -0.7145   -8.6625    0.0000 C   0  0  0  0  0  0  0  0  0  0  0  0
   -0.7145   -7.8375    0.0000 O   0  0  0  0  0  0  0  0  0  0  0  0
   -1.4289   -7.4250    0.0000 C   0  0  0  0  0  0  0  0  0  0  0  0
   -2.1434   -7.8375    0.0000 N   0  0  0  0  0  0  0  0  0  0  0  0
   -2.8579   -7.4250    0.0000 C   0  0  0  0  0  0  0  0  0  0  0  0
   -3.5724   -7.8375    0.0000 H   0  0  0  0  0  0  0  0  0  0  0  0
   -2.8579   -6.6000    0.0000 C   0  0  0  0  0  0  0  0  0  0  0  0
   -3.5724   -6.1875    0.0000 Br  0  0  0  0  0  0  0  0  0  0  0  0
   -2.1434   -6.1875    0.0000 C   0  0  0  0  0  0  0  0  0  0  0  0
   -2.1434   -5.3625    0.0000 H   0  0  0  0  0  0  0  0  0  0  0  0
   -1.4289   -6.6000    0.0000 C   0  0  0  0  0  0  0  0  0  0  0  0
   -0.7145   -6.1875    0.0000 N   0  0  0  0  0  0  0  0  0  0  0  0
   -0.7145   -5.3625    0.0000 C   0  0  0  0  0  0  0  0  0  0  0  0
   -1.4289   -4.9500    0.0000 C   0  0  0  0  0  0  0  0  0  0  0  0
   -1.4289   -5.7750    0.0000 H   0  0  0  0  0  0  0  0  0  0  0  0
   -1.4289   -4.1250    0.0000 C   0  0  0  0  0  0  0  0  0  0  0  0
   -2.1434   -3.7125    0.0000 Cl  0  0  0  0  0  0  0  0  0  0  0  0
   -0.7145   -3.7125    0.0000 C   0  0  0  0  0  0  0  0  0  0  0  0
   -0.7145   -2.8875    0.0000 H   0  0  0  0  0  0  0  0  0  0  0  0
    0.0000   -4.1250    0.0000 C   0  0  0  0  0  0  0  0  0  0  0  0
    0.7145   -3.7125    0.0000 C   0  0  0  0  0  0  0  0  0  0  0  0
    0.7145   -2.8875    0.0000 C   0  0  0  0  0  0  0  0  0  0  0  0
    0.0000   -2.4750    0.0000 O   0  0  0  0  0  0  0  0  0  0  0  0
    1.4289   -2.4750    0.0000 N   0  0  0  0  0  0  0  0  0  0  0  0
    1.4289   -1.6500    0.0000 C   0  0  0  0  0  0  0  0  0  0  0  0
    0.7145   -1.2375    0.0000 C   0  0  0  0  0  0  0  0  0  0  0  0
    0.0000   -1.6500    0.0000 H   0  0  0  0  0  0  0  0  0  0  0  0
    0.7145   -0.4125    0.0000 N   0  0  0  0  0  0  0  0  0  0  0  0
    1.4289    0.0000    0.0000 C   0  0  0  0  0  0  0  0  0  0  0  0
    1.4289    0.8250    0.0000 H   0  0  0  0  0  0  0  0  0  0  0  0
    2.1434   -0.4125    0.0000 C   0  0  0  0  0  0  0  0  0  0  0  0
    2.8579    0.0000    0.0000 C   0  0  0  0  0  0  0  0  0  0  0  0
    3.5724   -0.4125    0.0000 C   0  0  0  0  0  0  0  0  0  0  0  0
    3.5724   -1.2375    0.0000 C   0  0  0  0  0  0  0  0  0  0  0  0
    2.8579   -1.6500    0.0000 C   0  0  0  0  0  0  0  0  0  0  0  0
    2.8579   -2.4750    0.0000 H   0  0  0  0  0  0  0  0  0  0  0  0
    2.1434   -1.2375    0.0000 C   0  0  0  0  0  0  0  0  0  0  0  0
    4.2868   -1.6500    0.0000 H   0  0  0  0  0  0  0  0  0  0  0  0
    4.2868   -0.0000    0.0000 H   0  0  0  0  0  0  0  0  0  0  0  0
    2.8579    0.8250    0.0000 H   0  0  0  0  0  0  0  0  0  0  0  0
    2.1434   -2.8875    0.0000 H   0  0  0  0  0  0  0  0  0  0  0  0
    1.1678   -4.4018    0.0000 H   0  0  0  0  0  0  0  0  0  0  0  0
    1.5381   -3.7605    0.0000 H   0  0  0  0  0  0  0  0  0  0  0  0
    0.0000   -4.9500    0.0000 C   0  0  0  0  0  0  0  0  0  0  0  0
    0.7145   -5.3625    0.0000 H   0  0  0  0  0  0  0  0  0  0  0  0
    0.0000   -6.6000    0.0000 H   0  0  0  0  0  0  0  0  0  0  0  0
   -1.5395   -8.6625    0.0000 H   0  0  0  0  0  0  0  0  0  0  0  0
   -0.7145   -9.4875    0.0000 H   0  0  0  0  0  0  0  0  0  0  0  0
    0.1105   -8.6625    0.0000 H   0  0  0  0  0  0  0  0  0  0  0  0
  1  2  1  0  0  0  0
  2  3  1  0  0  0  0
  3  4  2  0  0  0  0
  4  5  1  0  0  0  0
  5  6  1  0  0  0  0
  5  7  2  0  0  0  0
  7  8  1  0  0  0  0
  7  9  1  0  0  0  0
  9 10  1  0  0  0  0
  9 11  2  0  0  0  0
  3 11  1  0  0  0  0
 11 12  1  0  0  0  0
 12 13  1  0  0  0  0
 13 14  2  0  0  0  0
 14 15  1  0  0  0  0
 14 16  1  0  0  0  0
 16 17  1  0  0  0  0
 16 18  2  0  0  0  0
 18 19  1  0  0  0  0
 18 20  1  0  0  0  0
 20 21  1  0  0  0  0
 21 22  1  0  0  0  0
 22 23  2  0  0  0  0
 22 24  1  0  0  0  0
 24 25  1  0  0  0  0
 25 26  2  0  0  0  0
 26 27  1  0  0  0  0
 26 28  1  0  0  0  0
 28 29  2  0  0  0  0
 29 30  1  0  0  0  0
 29 31  1  0  0  0  0
 31 32  2  0  0  0  0
 32 33  1  0  0  0  0
 33 34  2  0  0  0  0
 34 35  1  0  0  0  0
 35 36  1  0  0  0  0
 35 37  2  0  0  0  0
 25 37  1  0  0  0  0
 31 37  1  0  0  0  0
 34 38  1  0  0  0  0
 33 39  1  0  0  0  0
 32 40  1  0  0  0  0
 24 41  1  0  0  0  0
 21 42  1  0  0  0  0
 21 43  1  0  0  0  0
 20 44  2  0  0  0  0
 13 44  1  0  0  0  0
 44 45  1  0  0  0  0
 12 46  1  0  0  0  0
  1 47  1  0  0  0  0
  1 48  1  0  0  0  0
  1 49  1  0  0  0  0
M  END
> <Potency>
0.680672312049196

> <pIC50>
6.167061914987898

> <Outcome>
Active

> <is_active>
1

$$$$

  Mrv1921 08232120312D          

 77 80  0  0  0  0            999 V2000
   -1.6084    0.5473    0.0000 C   0  0  0  0  0  0  0  0  0  0  0  0
   -0.8547    0.2118    0.0000 C   0  0  0  0  0  0  0  0  0  0  0  0
   -1.1902   -0.5419    0.0000 C   0  0  0  0  0  0  0  0  0  0  0  0
   -1.7887   -1.1098    0.0000 H   0  0  0  0  0  0  0  0  0  0  0  0
   -0.8946   -1.3121    0.0000 H   0  0  0  0  0  0  0  0  0  0  0  0
   -0.3655   -0.5635    0.0000 H   0  0  0  0  0  0  0  0  0  0  0  0
   -0.5191    0.9654    0.0000 C   0  0  0  0  0  0  0  0  0  0  0  0
    0.0488    0.3670    0.0000 H   0  0  0  0  0  0  0  0  0  0  0  0
    0.2511    1.2611    0.0000 H   0  0  0  0  0  0  0  0  0  0  0  0
   -0.4975    1.7902    0.0000 H   0  0  0  0  0  0  0  0  0  0  0  0
   -0.1010   -0.1238    0.0000 O   0  0  0  0  0  0  0  0  0  0  0  0
   -0.0148   -0.9443    0.0000 C   0  0  0  0  0  0  0  0  0  0  0  0
   -0.6822   -1.4292    0.0000 O   0  0  0  0  0  0  0  0  0  0  0  0
    0.7389   -1.2798    0.0000 N   0  0  0  0  0  0  0  0  0  0  0  0
    1.4534   -0.8673    0.0000 C   0  0  0  0  0  0  0  0  0  0  0  0
    1.9147   -0.1834    0.0000 H   0  0  0  0  0  0  0  0  0  0  0  0
    1.1443   -0.1024    0.0000 H   0  0  0  0  0  0  0  0  0  0  0  0
    2.0665   -1.4194    0.0000 C   0  0  0  0  0  0  0  0  0  0  0  0
    2.8595   -1.6468    0.0000 H   0  0  0  0  0  0  0  0  0  0  0  0
    2.6985   -0.8891    0.0000 H   0  0  0  0  0  0  0  0  0  0  0  0
    1.7309   -2.1730    0.0000 C   0  0  0  0  0  0  0  0  0  0  0  0
    2.1434   -2.8875    0.0000 N   0  0  0  0  0  0  0  0  0  0  0  0
    2.9684   -2.8875    0.0000 C   0  0  0  0  0  0  0  0  0  0  0  0
    3.3809   -2.1730    0.0000 O   0  0  0  0  0  0  0  0  0  0  0  0
    3.3809   -3.6020    0.0000 C   0  0  0  0  0  0  0  0  0  0  0  0
    2.9684   -4.3164    0.0000 C   0  0  0  0  0  0  0  0  0  0  0  0
    3.3809   -5.0309    0.0000 C   0  0  0  0  0  0  0  0  0  0  0  0
    3.7934   -4.3164    0.0000 H   0  0  0  0  0  0  0  0  0  0  0  0
    2.9684   -5.7454    0.0000 C   0  0  0  0  0  0  0  0  0  0  0  0
    3.3809   -6.4599    0.0000 H   0  0  0  0  0  0  0  0  0  0  0  0
    2.1434   -5.7454    0.0000 C   0  0  0  0  0  0  0  0  0  0  0  0
    1.7309   -6.4599    0.0000 H   0  0  0  0  0  0  0  0  0  0  0  0
    1.7309   -5.0309    0.0000 N   0  0  0  0  0  0  0  0  0  0  0  0
    2.1434   -4.3164    0.0000 C   0  0  0  0  0  0  0  0  0  0  0  0
    1.3446   -4.1100    0.0000 H   0  0  0  0  0  0  0  0  0  0  0  0
    4.2059   -3.6020    0.0000 N   0  0  0  0  0  0  0  0  0  0  0  0
    4.6184   -2.8875    0.0000 C   0  0  0  0  0  0  0  0  0  0  0  0
    4.2059   -2.1730    0.0000 O   0  0  0  0  0  0  0  0  0  0  0  0
    5.4434   -2.8875    0.0000 C   0  0  0  0  0  0  0  0  0  0  0  0
    5.9283   -2.2201    0.0000 C   0  0  0  0  0  0  0  0  0  0  0  0
    5.6734   -1.4354    0.0000 H   0  0  0  0  0  0  0  0  0  0  0  0
    6.7130   -2.4750    0.0000 O   0  0  0  0  0  0  0  0  0  0  0  0
    6.7130   -3.3000    0.0000 C   0  0  0  0  0  0  0  0  0  0  0  0
    7.3804   -3.7849    0.0000 H   0  0  0  0  0  0  0  0  0  0  0  0
    5.9283   -3.5549    0.0000 N   0  0  0  0  0  0  0  0  0  0  0  0
    4.6184   -4.3164    0.0000 C   0  0  0  0  0  0  0  0  0  0  0  0
    5.4434   -4.3164    0.0000 C   0  0  0  0  0  0  0  0  0  0  0  0
    5.0465   -3.5932    0.0000 H   0  0  0  0  0  0  0  0  0  0  0  0
    5.8559   -5.0309    0.0000 C   0  0  0  0  0  0  0  0  0  0  0  0
    6.6809   -5.0309    0.0000 H   0  0  0  0  0  0  0  0  0  0  0  0
    5.4434   -5.7454    0.0000 C   0  0  0  0  0  0  0  0  0  0  0  0
    5.8559   -6.4599    0.0000 C   0  0  0  0  0  0  0  0  0  0  0  0
    6.2684   -7.1743    0.0000 C   0  0  0  0  0  0  0  0  0  0  0  0
    5.5539   -7.5868    0.0000 H   0  0  0  0  0  0  0  0  0  0  0  0
    6.6809   -7.8888    0.0000 H   0  0  0  0  0  0  0  0  0  0  0  0
    6.9829   -6.7618    0.0000 H   0  0  0  0  0  0  0  0  0  0  0  0
    5.1414   -6.8724    0.0000 C   0  0  0  0  0  0  0  0  0  0  0  0
    5.0338   -6.0544    0.0000 H   0  0  0  0  0  0  0  0  0  0  0  0
    4.3446   -6.6588    0.0000 H   0  0  0  0  0  0  0  0  0  0  0  0
    4.6392   -7.5269    0.0000 H   0  0  0  0  0  0  0  0  0  0  0  0
    6.5704   -6.0474    0.0000 C   0  0  0  0  0  0  0  0  0  0  0  0
    7.3883   -5.9397    0.0000 H   0  0  0  0  0  0  0  0  0  0  0  0
    6.7839   -5.2505    0.0000 H   0  0  0  0  0  0  0  0  0  0  0  0
    5.9159   -5.5451    0.0000 H   0  0  0  0  0  0  0  0  0  0  0  0
    4.6184   -5.7454    0.0000 C   0  0  0  0  0  0  0  0  0  0  0  0
    3.7990   -5.8410    0.0000 H   0  0  0  0  0  0  0  0  0  0  0  0
    4.2059   -5.0309    0.0000 C   0  0  0  0  0  0  0  0  0  0  0  0
    5.0309   -5.0309    0.0000 H   0  0  0  0  0  0  0  0  0  0  0  0
    2.5559   -3.6020    0.0000 H   0  0  0  0  0  0  0  0  0  0  0  0
    2.1326   -3.7124    0.0000 H   0  0  0  0  0  0  0  0  0  0  0  0
    1.2816   -2.8649    0.0000 H   0  0  0  0  0  0  0  0  0  0  0  0
    0.9104   -2.0868    0.0000 C   0  0  0  0  0  0  0  0  0  0  0  0
    0.0864   -2.0472    0.0000 H   0  0  0  0  0  0  0  0  0  0  0  0
    0.2808   -2.6198    0.0000 H   0  0  0  0  0  0  0  0  0  0  0  0
   -1.2728    1.3010    0.0000 H   0  0  0  0  0  0  0  0  0  0  0  0
   -2.3620    0.8829    0.0000 H   0  0  0  0  0  0  0  0  0  0  0  0
   -1.9439   -0.2063    0.0000 H   0  0  0  0  0  0  0  0  0  0  0  0
  1  2  1  0  0  0  0
  2  3  1  0  0  0  0
  3  4  1  0  0  0  0
  3  5  1  0  0  0  0
  3  6  1  0  0  0  0
  2  7  1  0  0  0  0
  7  8  1  0  0  0  0
  7  9  1  0  0  0  0
  7 10  1  0  0  0  0
  2 11  1  0  0  0  0
 11 12  1  0  0  0  0
 12 13  2  0  0  0  0
 12 14  1  0  0  0  0
 14 15  1  0  0  0  0
 15 16  1  0  0  0  0
 15 17  1  0  0  0  0
 15 18  1  0  0  0  0
 18 19  1  0  0  0  0
 18 20  1  0  0  0  0
 18 21  1  0  0  0  0
 21 22  1  0  0  0  0
 22 23  1  0  0  0  0
 23 24  2  0  0  0  0
 23 25  1  0  0  0  0
 25 26  1  0  0  0  0
 26 27  2  0  0  0  0
 27 28  1  0  0  0  0
 27 29  1  0  0  0  0
 29 30  1  0  0  0  0
 29 31  2  0  0  0  0
 31 32  1  0  0  0  0
 31 33  1  0  0  0  0
 33 34  2  0  0  0  0
 26 34  1  0  0  0  0
 34 35  1  0  0  0  0
 25 36  1  0  0  0  0
 36 37  1  0  0  0  0
 37 38  2  0  0  0  0
 37 39  1  0  0  0  0
 39 40  2  0  0  0  0
 40 41  1  0  0  0  0
 40 42  1  0  0  0  0
 42 43  1  0  0  0  0
 43 44  1  0  0  0  0
 43 45  2  0  0  0  0
 39 45  1  0  0  0  0
 36 46  1  0  0  0  0
 46 47  2  0  0  0  0
 47 48  1  0  0  0  0
 47 49  1  0  0  0  0
 49 50  1  0  0  0  0
 49 51  2  0  0  0  0
 51 52  1  0  0  0  0
 52 53  1  0  0  0  0
 53 54  1  0  0  0  0
 53 55  1  0  0  0  0
 53 56  1  0  0  0  0
 52 57  1  0  0  0  0
 57 58  1  0  0  0  0
 57 59  1  0  0  0  0
 57 60  1  0  0  0  0
 52 61  1  0  0  0  0
 61 62  1  0  0  0  0
 61 63  1  0  0  0  0
 61 64  1  0  0  0  0
 51 65  1  0  0  0  0
 65 66  1  0  0  0  0
 65 67  2  0  0  0  0
 46 67  1  0  0  0  0
 67 68  1  0  0  0  0
 25 69  1  0  0  0  0
 22 70  1  0  0  0  0
 21 71  1  0  0  0  0
 21 72  1  0  0  0  0
 14 72  1  0  0  0  0
 72 73  1  0  0  0  0
 72 74  1  0  0  0  0
  1 75  1  0  0  0  0
  1 76  1  0  0  0  0
  1 77  1  0  0  0  0
M  END
> <Potency>
3.65092449067349

> <pIC50>
5.437597149143658

> <Outcome>
Active

> <is_active>
1

$$$$

  Mrv1921 08232120312D          

 58 61  0  0  0  0            999 V2000
    7.8592    1.2375    0.0000 C   0  0  0  0  0  0  0  0  0  0  0  0
    7.8592    0.4125    0.0000 C   0  0  0  0  0  0  0  0  0  0  0  0
    7.1447    0.0000    0.0000 N   0  0  0  0  0  0  0  0  0  0  0  0
    6.4302    0.4125    0.0000 C   0  0  0  0  0  0  0  0  0  0  0  0
    6.4302    1.2375    0.0000 O   0  0  0  0  0  0  0  0  0  0  0  0
    5.7158    0.0000    0.0000 C   0  0  0  0  0  0  0  0  0  0  0  0
    5.5022   -0.7969    0.0000 C   0  0  0  0  0  0  0  0  0  0  0  0
    5.5022   -1.6219    0.0000 H   0  0  0  0  0  0  0  0  0  0  0  0
    6.2167   -1.2094    0.0000 H   0  0  0  0  0  0  0  0  0  0  0  0
    4.7054   -0.5834    0.0000 C   0  0  0  0  0  0  0  0  0  0  0  0
    3.8804   -0.5834    0.0000 H   0  0  0  0  0  0  0  0  0  0  0  0
    4.2929   -1.2978    0.0000 H   0  0  0  0  0  0  0  0  0  0  0  0
    4.9189    0.2135    0.0000 C   0  0  0  0  0  0  0  0  0  0  0  0
    4.4531    0.8944    0.0000 H   0  0  0  0  0  0  0  0  0  0  0  0
    4.1022    0.3301    0.0000 H   0  0  0  0  0  0  0  0  0  0  0  0
    5.6081    0.8179    0.0000 H   0  0  0  0  0  0  0  0  0  0  0  0
    7.1447   -0.8250    0.0000 H   0  0  0  0  0  0  0  0  0  0  0  0
    8.5737    0.0000    0.0000 C   0  0  0  0  0  0  0  0  0  0  0  0
    8.5737   -0.8250    0.0000 O   0  0  0  0  0  0  0  0  0  0  0  0
    9.2881    0.4125    0.0000 N   0  0  0  0  0  0  0  0  0  0  0  0
   10.0026    0.0000    0.0000 C   0  0  0  0  0  0  0  0  0  0  0  0
   10.7171    0.4125    0.0000 C   0  0  0  0  0  0  0  0  0  0  0  0
   10.7171    1.2375    0.0000 O   0  0  0  0  0  0  0  0  0  0  0  0
   11.4315    0.0000    0.0000 N   0  0  0  0  0  0  0  0  0  0  0  0
   12.1460    0.4125    0.0000 C   0  0  0  0  0  0  0  0  0  0  0  0
   12.1460    1.2375    0.0000 C   0  0  0  0  0  0  0  0  0  0  0  0
   11.4315    1.6500    0.0000 H   0  0  0  0  0  0  0  0  0  0  0  0
   12.8605    1.6500    0.0000 N   0  0  0  0  0  0  0  0  0  0  0  0
   13.5749    1.2375    0.0000 C   0  0  0  0  0  0  0  0  0  0  0  0
   14.2894    1.6500    0.0000 H   0  0  0  0  0  0  0  0  0  0  0  0
   13.5749    0.4125    0.0000 C   0  0  0  0  0  0  0  0  0  0  0  0
   14.2894    0.0000    0.0000 C   0  0  0  0  0  0  0  0  0  0  0  0
   14.2894   -0.8250    0.0000 C   0  0  0  0  0  0  0  0  0  0  0  0
   13.5749   -1.2375    0.0000 C   0  0  0  0  0  0  0  0  0  0  0  0
   12.8605   -0.8250    0.0000 C   0  0  0  0  0  0  0  0  0  0  0  0
   12.1460   -1.2375    0.0000 H   0  0  0  0  0  0  0  0  0  0  0  0
   12.8605    0.0000    0.0000 C   0  0  0  0  0  0  0  0  0  0  0  0
   13.5749   -2.0625    0.0000 H   0  0  0  0  0  0  0  0  0  0  0  0
   15.0039   -1.2375    0.0000 H   0  0  0  0  0  0  0  0  0  0  0  0
   15.0039    0.4125    0.0000 H   0  0  0  0  0  0  0  0  0  0  0  0
   11.4315   -0.8250    0.0000 H   0  0  0  0  0  0  0  0  0  0  0  0
   10.0026   -0.8250    0.0000 C   0  0  0  0  0  0  0  0  0  0  0  0
   10.7171   -1.2375    0.0000 C   0  0  0  0  0  0  0  0  0  0  0  0
   10.7171   -0.4125    0.0000 H   0  0  0  0  0  0  0  0  0  0  0  0
   10.7171   -2.0625    0.0000 C   0  0  0  0  0  0  0  0  0  0  0  0
   11.4315   -2.4750    0.0000 H   0  0  0  0  0  0  0  0  0  0  0  0
   10.0026   -2.4750    0.0000 C   0  0  0  0  0  0  0  0  0  0  0  0
   10.0026   -3.3000    0.0000 H   0  0  0  0  0  0  0  0  0  0  0  0
    9.2881   -2.0625    0.0000 C   0  0  0  0  0  0  0  0  0  0  0  0
    8.5737   -2.4750    0.0000 Cl  0  0  0  0  0  0  0  0  0  0  0  0
    9.2881   -1.2375    0.0000 C   0  0  0  0  0  0  0  0  0  0  0  0
    9.2881   -0.4125    0.0000 H   0  0  0  0  0  0  0  0  0  0  0  0
   10.0026    0.8250    0.0000 H   0  0  0  0  0  0  0  0  0  0  0  0
    9.2881    1.2375    0.0000 H   0  0  0  0  0  0  0  0  0  0  0  0
    7.1447    0.8250    0.0000 H   0  0  0  0  0  0  0  0  0  0  0  0
    8.6842    1.2375    0.0000 H   0  0  0  0  0  0  0  0  0  0  0  0
    7.8592    2.0625    0.0000 H   0  0  0  0  0  0  0  0  0  0  0  0
    7.0342    1.2375    0.0000 H   0  0  0  0  0  0  0  0  0  0  0  0
  1  2  1  0  0  0  0
  2  3  1  0  0  0  0
  3  4  1  0  0  0  0
  4  5  2  0  0  0  0
  4  6  1  0  0  0  0
  6  7  1  0  0  0  0
  7  8  1  0  0  0  0
  7  9  1  0  0  0  0
  7 10  1  0  0  0  0
 10 11  1  0  0  0  0
 10 12  1  0  0  0  0
 10 13  1  0  0  0  0
  6 13  1  0  0  0  0
 13 14  1  0  0  0  0
 13 15  1  0  0  0  0
  6 16  1  0  0  0  0
  3 17  1  0  0  0  0
  2 18  1  0  0  0  0
 18 19  2  0  0  0  0
 18 20  1  0  0  0  0
 20 21  1  0  0  0  0
 21 22  1  0  0  0  0
 22 23  2  0  0  0  0
 22 24  1  0  0  0  0
 24 25  1  0  0  0  0
 25 26  2  0  0  0  0
 26 27  1  0  0  0  0
 26 28  1  0  0  0  0
 28 29  2  0  0  0  0
 29 30  1  0  0  0  0
 29 31  1  0  0  0  0
 31 32  2  0  0  0  0
 32 33  1  0  0  0  0
 33 34  2  0  0  0  0
 34 35  1  0  0  0  0
 35 36  1  0  0  0  0
 35 37  2  0  0  0  0
 25 37  1  0  0  0  0
 31 37  1  0  0  0  0
 34 38  1  0  0  0  0
 33 39  1  0  0  0  0
 32 40  1  0  0  0  0
 24 41  1  0  0  0  0
 21 42  1  0  0  0  0
 42 43  2  0  0  0  0
 43 44  1  0  0  0  0
 43 45  1  0  0  0  0
 45 46  1  0  0  0  0
 45 47  2  0  0  0  0
 47 48  1  0  0  0  0
 47 49  1  0  0  0  0
 49 50  1  0  0  0  0
 49 51  2  0  0  0  0
 42 51  1  0  0  0  0
 51 52  1  0  0  0  0
 21 53  1  0  0  0  0
 20 54  1  0  0  0  0
  2 55  1  0  0  0  0
  1 56  1  0  0  0  0
  1 57  1  0  0  0  0
  1 58  1  0  0  0  0
M  END
> <Potency>
4.80589118082366

> <pIC50>
5.318226067094925

> <Outcome>
Active

> <is_active>
1

$$$$

  Mrv1921 08232120312D          

 65 70  0  0  0  0            999 V2000
    4.3112    3.1335    0.0000 O   0  0  0  0  0  0  0  0  0  0  0  0
    4.3112    2.3085    0.0000 C   0  0  0  0  0  0  0  0  0  0  0  0
    3.5967    1.8960    0.0000 C   0  0  0  0  0  0  0  0  0  0  0  0
    3.5967    1.0710    0.0000 C   0  0  0  0  0  0  0  0  0  0  0  0
    2.7843    1.2143    0.0000 C   0  0  0  0  0  0  0  0  0  0  0  0
    2.2540    0.5823    0.0000 O   0  0  0  0  0  0  0  0  0  0  0  0
    2.5021    1.9895    0.0000 N   0  0  0  0  0  0  0  0  0  0  0  0
    1.6896    2.1328    0.0000 C   0  0  0  0  0  0  0  0  0  0  0  0
    1.1593    1.5008    0.0000 C   0  0  0  0  0  0  0  0  0  0  0  0
    1.4415    0.7256    0.0000 H   0  0  0  0  0  0  0  0  0  0  0  0
    0.3469    1.6441    0.0000 N   0  0  0  0  0  0  0  0  0  0  0  0
    0.0647    2.4193    0.0000 C   0  0  0  0  0  0  0  0  0  0  0  0
   -0.7478    2.5626    0.0000 H   0  0  0  0  0  0  0  0  0  0  0  0
    0.5950    3.0513    0.0000 C   0  0  0  0  0  0  0  0  0  0  0  0
    0.3128    3.8266    0.0000 C   0  0  0  0  0  0  0  0  0  0  0  0
    0.8431    4.4585    0.0000 C   0  0  0  0  0  0  0  0  0  0  0  0
    1.6556    4.3153    0.0000 C   0  0  0  0  0  0  0  0  0  0  0  0
    1.9378    3.5400    0.0000 C   0  0  0  0  0  0  0  0  0  0  0  0
    2.7039    3.8460    0.0000 H   0  0  0  0  0  0  0  0  0  0  0  0
    1.4075    2.9080    0.0000 C   0  0  0  0  0  0  0  0  0  0  0  0
    2.1859    4.9473    0.0000 H   0  0  0  0  0  0  0  0  0  0  0  0
    0.5610    5.2338    0.0000 H   0  0  0  0  0  0  0  0  0  0  0  0
   -0.4996    3.9698    0.0000 H   0  0  0  0  0  0  0  0  0  0  0  0
    2.2685    2.7808    0.0000 H   0  0  0  0  0  0  0  0  0  0  0  0
    4.4092    1.2143    0.0000 C   0  0  0  0  0  0  0  0  0  0  0  0
    4.0100    1.9363    0.0000 H   0  0  0  0  0  0  0  0  0  0  0  0
    4.1270    0.4390    0.0000 H   0  0  0  0  0  0  0  0  0  0  0  0
    4.9395    0.5823    0.0000 C   0  0  0  0  0  0  0  0  0  0  0  0
    5.2010   -0.2002    0.0000 H   0  0  0  0  0  0  0  0  0  0  0  0
    5.6311    0.1325    0.0000 H   0  0  0  0  0  0  0  0  0  0  0  0
    4.6573   -0.1929    0.0000 O   0  0  0  0  0  0  0  0  0  0  0  0
    3.8449   -0.3362    0.0000 C   0  0  0  0  0  0  0  0  0  0  0  0
    3.5627   -1.1114    0.0000 C   0  0  0  0  0  0  0  0  0  0  0  0
    2.7502   -1.2547    0.0000 C   0  0  0  0  0  0  0  0  0  0  0  0
    2.2199   -0.6227    0.0000 C   0  0  0  0  0  0  0  0  0  0  0  0
    1.4075   -0.7660    0.0000 Cl  0  0  0  0  0  0  0  0  0  0  0  0
    2.5021    0.1525    0.0000 C   0  0  0  0  0  0  0  0  0  0  0  0
    1.6802    0.0806    0.0000 H   0  0  0  0  0  0  0  0  0  0  0  0
    3.3146    0.2958    0.0000 C   0  0  0  0  0  0  0  0  0  0  0  0
    2.4681   -2.0299    0.0000 H   0  0  0  0  0  0  0  0  0  0  0  0
    4.0930   -1.7434    0.0000 H   0  0  0  0  0  0  0  0  0  0  0  0
    3.1434    2.5853    0.0000 H   0  0  0  0  0  0  0  0  0  0  0  0
    2.7731    1.9440    0.0000 H   0  0  0  0  0  0  0  0  0  0  0  0
    5.0257    1.8960    0.0000 N   0  0  0  0  0  0  0  0  0  0  0  0
    5.0257    1.0710    0.0000 C   0  0  0  0  0  0  0  0  0  0  0  0
    4.5126    1.7171    0.0000 H   0  0  0  0  0  0  0  0  0  0  0  0
    5.3743    0.3233    0.0000 H   0  0  0  0  0  0  0  0  0  0  0  0
    5.7401    0.6585    0.0000 C   0  0  0  0  0  0  0  0  0  0  0  0
    5.5339    1.4835    0.0000 C   0  0  0  0  0  0  0  0  0  0  0  0
    6.2796    1.1307    0.0000 H   0  0  0  0  0  0  0  0  0  0  0  0
    6.2796    1.8364    0.0000 H   0  0  0  0  0  0  0  0  0  0  0  0
    5.7401    2.3085    0.0000 C   0  0  0  0  0  0  0  0  0  0  0  0
    6.4546    1.8960    0.0000 C   0  0  0  0  0  0  0  0  0  0  0  0
    6.4546    1.0710    0.0000 N   0  0  0  0  0  0  0  0  0  0  0  0
    7.1691    0.6585    0.0000 C   0  0  0  0  0  0  0  0  0  0  0  0
    7.1691   -0.1665    0.0000 C   0  0  0  0  0  0  0  0  0  0  0  0
    7.8836   -0.5790    0.0000 F   0  0  0  0  0  0  0  0  0  0  0  0
    6.4546   -0.5790    0.0000 F   0  0  0  0  0  0  0  0  0  0  0  0
    7.8836    0.2460    0.0000 H   0  0  0  0  0  0  0  0  0  0  0  0
    7.9927    0.7065    0.0000 H   0  0  0  0  0  0  0  0  0  0  0  0
    7.6224    1.3478    0.0000 H   0  0  0  0  0  0  0  0  0  0  0  0
    7.2782    1.9440    0.0000 H   0  0  0  0  0  0  0  0  0  0  0  0
    6.9080    2.5853    0.0000 H   0  0  0  0  0  0  0  0  0  0  0  0
    5.7401    3.1335    0.0000 H   0  0  0  0  0  0  0  0  0  0  0  0
    6.4088    0.1753    0.0000 H   0  0  0  0  0  0  0  0  0  0  0  0
  1  2  2  0  0  0  0
  2  3  1  0  0  0  0
  3  4  1  0  0  0  0
  4  5  1  0  0  0  0
  5  6  2  0  0  0  0
  5  7  1  0  0  0  0
  7  8  1  0  0  0  0
  8  9  2  0  0  0  0
  9 10  1  0  0  0  0
  9 11  1  0  0  0  0
 11 12  2  0  0  0  0
 12 13  1  0  0  0  0
 12 14  1  0  0  0  0
 14 15  2  0  0  0  0
 15 16  1  0  0  0  0
 16 17  2  0  0  0  0
 17 18  1  0  0  0  0
 18 19  1  0  0  0  0
 18 20  2  0  0  0  0
  8 20  1  0  0  0  0
 14 20  1  0  0  0  0
 17 21  1  0  0  0  0
 16 22  1  0  0  0  0
 15 23  1  0  0  0  0
  7 24  1  0  0  0  0
  4 25  1  0  0  0  0
 25 26  1  0  0  0  0
 25 27  1  0  0  0  0
 25 28  1  0  0  0  0
 28 29  1  0  0  0  0
 28 30  1  0  0  0  0
 28 31  1  0  0  0  0
 31 32  1  0  0  0  0
 32 33  2  0  0  0  0
 33 34  1  0  0  0  0
 34 35  2  0  0  0  0
 35 36  1  0  0  0  0
 35 37  1  0  0  0  0
 37 38  1  0  0  0  0
 37 39  2  0  0  0  0
  4 39  1  0  0  0  0
 32 39  1  0  0  0  0
 34 40  1  0  0  0  0
 33 41  1  0  0  0  0
  3 42  1  0  0  0  0
  3 43  1  0  0  0  0
  2 44  1  0  0  0  0
 44 45  1  0  0  0  0
 45 46  1  0  0  0  0
 45 47  1  0  0  0  0
 45 48  1  0  0  0  0
 48 49  1  0  0  0  0
 49 50  1  0  0  0  0
 49 51  1  0  0  0  0
 49 52  1  0  0  0  0
 44 52  1  0  0  0  0
 52 53  1  0  0  0  0
 53 54  1  0  0  0  0
 48 54  1  0  0  0  0
 54 55  1  0  0  0  0
 55 56  1  0  0  0  0
 56 57  1  0  0  0  0
 56 58  1  0  0  0  0
 56 59  1  0  0  0  0
 55 60  1  0  0  0  0
 55 61  1  0  0  0  0
 53 62  1  0  0  0  0
 53 63  1  0  0  0  0
 52 64  1  0  0  0  0
 48 65  1  0  0  0  0
M  END
> <Potency>
3.78036306769605

> <pIC50>
5.422466488330773

> <Outcome>
Active

> <is_active>
1

$$$$

  Mrv1921 08232120312D          

 40 43  0  0  0  0            999 V2000
    4.0419   -1.2258    0.0000 C   0  0  0  0  0  0  0  0  0  0  0  0
    4.7564   -0.8133    0.0000 C   0  0  0  0  0  0  0  0  0  0  0  0
    5.0920   -1.5670    0.0000 C   0  0  0  0  0  0  0  0  0  0  0  0
    5.9125   -1.6533    0.0000 O   0  0  0  0  0  0  0  0  0  0  0  0
    4.6070   -2.2345    0.0000 N   0  0  0  0  0  0  0  0  0  0  0  0
    4.9426   -2.9881    0.0000 C   0  0  0  0  0  0  0  0  0  0  0  0
    5.7631   -3.0744    0.0000 C   0  0  0  0  0  0  0  0  0  0  0  0
    6.2480   -2.4069    0.0000 H   0  0  0  0  0  0  0  0  0  0  0  0
    6.0986   -3.8280    0.0000 N   0  0  0  0  0  0  0  0  0  0  0  0
    5.6137   -4.4955    0.0000 C   0  0  0  0  0  0  0  0  0  0  0  0
    5.9493   -5.2492    0.0000 H   0  0  0  0  0  0  0  0  0  0  0  0
    4.7932   -4.4093    0.0000 C   0  0  0  0  0  0  0  0  0  0  0  0
    4.3083   -5.0767    0.0000 C   0  0  0  0  0  0  0  0  0  0  0  0
    3.4878   -4.9905    0.0000 C   0  0  0  0  0  0  0  0  0  0  0  0
    3.1523   -4.2368    0.0000 C   0  0  0  0  0  0  0  0  0  0  0  0
    3.6372   -3.5693    0.0000 C   0  0  0  0  0  0  0  0  0  0  0  0
    3.3016   -2.8157    0.0000 H   0  0  0  0  0  0  0  0  0  0  0  0
    4.4577   -3.6556    0.0000 C   0  0  0  0  0  0  0  0  0  0  0  0
    2.3318   -4.1505    0.0000 H   0  0  0  0  0  0  0  0  0  0  0  0
    3.0029   -5.6579    0.0000 H   0  0  0  0  0  0  0  0  0  0  0  0
    4.6439   -5.8304    0.0000 H   0  0  0  0  0  0  0  0  0  0  0  0
    3.8637   -2.5924    0.0000 H   0  0  0  0  0  0  0  0  0  0  0  0
    4.2715   -0.1459    0.0000 C   0  0  0  0  0  0  0  0  0  0  0  0
    3.7213    0.4689    0.0000 H   0  0  0  0  0  0  0  0  0  0  0  0
    4.0975   -0.9524    0.0000 H   0  0  0  0  0  0  0  0  0  0  0  0
    4.7564    0.5215    0.0000 N   0  0  0  0  0  0  0  0  0  0  0  0
    4.5015    1.3062    0.0000 H   0  0  0  0  0  0  0  0  0  0  0  0
    5.5410    0.2666    0.0000 C   0  0  0  0  0  0  0  0  0  0  0  0
    6.2555    0.6791    0.0000 C   0  0  0  0  0  0  0  0  0  0  0  0
    6.9700    0.2666    0.0000 C   0  0  0  0  0  0  0  0  0  0  0  0
    6.9700   -0.5584    0.0000 C   0  0  0  0  0  0  0  0  0  0  0  0
    7.6844   -0.9709    0.0000 Cl  0  0  0  0  0  0  0  0  0  0  0  0
    6.2555   -0.9709    0.0000 C   0  0  0  0  0  0  0  0  0  0  0  0
    6.8555   -1.5372    0.0000 H   0  0  0  0  0  0  0  0  0  0  0  0
    5.5410   -0.5584    0.0000 C   0  0  0  0  0  0  0  0  0  0  0  0
    7.6844    0.6791    0.0000 H   0  0  0  0  0  0  0  0  0  0  0  0
    6.2555    1.5041    0.0000 H   0  0  0  0  0  0  0  0  0  0  0  0
    3.6294   -0.5114    0.0000 H   0  0  0  0  0  0  0  0  0  0  0  0
    3.3275   -1.6383    0.0000 H   0  0  0  0  0  0  0  0  0  0  0  0
    4.4544   -1.9403    0.0000 H   0  0  0  0  0  0  0  0  0  0  0  0
  1  2  1  0  0  0  0
  2  3  1  0  0  0  0
  3  4  2  0  0  0  0
  3  5  1  0  0  0  0
  5  6  1  0  0  0  0
  6  7  2  0  0  0  0
  7  8  1  0  0  0  0
  7  9  1  0  0  0  0
  9 10  2  0  0  0  0
 10 11  1  0  0  0  0
 10 12  1  0  0  0  0
 12 13  2  0  0  0  0
 13 14  1  0  0  0  0
 14 15  2  0  0  0  0
 15 16  1  0  0  0  0
 16 17  1  0  0  0  0
 16 18  2  0  0  0  0
  6 18  1  0  0  0  0
 12 18  1  0  0  0  0
 15 19  1  0  0  0  0
 14 20  1  0  0  0  0
 13 21  1  0  0  0  0
  5 22  1  0  0  0  0
  2 23  1  0  0  0  0
 23 24  1  0  0  0  0
 23 25  1  0  0  0  0
 23 26  1  0  0  0  0
 26 27  1  0  0  0  0
 26 28  1  0  0  0  0
 28 29  2  0  0  0  0
 29 30  1  0  0  0  0
 30 31  2  0  0  0  0
 31 32  1  0  0  0  0
 31 33  1  0  0  0  0
 33 34  1  0  0  0  0
 33 35  2  0  0  0  0
  2 35  1  0  0  0  0
 28 35  1  0  0  0  0
 30 36  1  0  0  0  0
 29 37  1  0  0  0  0
  1 38  1  0  0  0  0
  1 39  1  0  0  0  0
  1 40  1  0  0  0  0
M  END
> <Potency>
1.47567498895495

> <pIC50>
5.831009283465671

> <Outcome>
Active

> <is_active>
1

$$$$

  Mrv1921 08232120312D          

 65 70  0  0  0  0            999 V2000
    1.7089    5.2855    0.0000 N   0  0  0  0  0  0  0  0  0  0  0  0
    2.5159    5.1140    0.0000 C   0  0  0  0  0  0  0  0  0  0  0  0
    3.0679    5.7271    0.0000 O   0  0  0  0  0  0  0  0  0  0  0  0
    2.7708    4.3294    0.0000 C   0  0  0  0  0  0  0  0  0  0  0  0
    3.5555    4.0745    0.0000 C   0  0  0  0  0  0  0  0  0  0  0  0
    4.3724    4.1893    0.0000 H   0  0  0  0  0  0  0  0  0  0  0  0
    3.9171    4.8160    0.0000 H   0  0  0  0  0  0  0  0  0  0  0  0
    3.5555    3.2495    0.0000 O   0  0  0  0  0  0  0  0  0  0  0  0
    2.7708    2.9945    0.0000 C   0  0  0  0  0  0  0  0  0  0  0  0
    2.5159    2.2099    0.0000 C   0  0  0  0  0  0  0  0  0  0  0  0
    1.7089    2.0384    0.0000 N   0  0  0  0  0  0  0  0  0  0  0  0
    1.4540    1.2537    0.0000 C   0  0  0  0  0  0  0  0  0  0  0  0
    2.0060    0.6407    0.0000 O   0  0  0  0  0  0  0  0  0  0  0  0
    0.6470    1.0822    0.0000 C   0  0  0  0  0  0  0  0  0  0  0  0
    0.3921    0.2976    0.0000 C   0  0  0  0  0  0  0  0  0  0  0  0
   -0.3364    0.6849    0.0000 C   0  0  0  0  0  0  0  0  0  0  0  0
   -1.0360    0.2477    0.0000 O   0  0  0  0  0  0  0  0  0  0  0  0
   -0.3651    1.5094    0.0000 N   0  0  0  0  0  0  0  0  0  0  0  0
   -1.0936    1.8967    0.0000 C   0  0  0  0  0  0  0  0  0  0  0  0
   -1.7932    1.4595    0.0000 C   0  0  0  0  0  0  0  0  0  0  0  0
   -1.7644    0.6350    0.0000 H   0  0  0  0  0  0  0  0  0  0  0  0
   -2.5217    1.8469    0.0000 N   0  0  0  0  0  0  0  0  0  0  0  0
   -2.5504    2.6714    0.0000 C   0  0  0  0  0  0  0  0  0  0  0  0
   -3.2789    3.0587    0.0000 H   0  0  0  0  0  0  0  0  0  0  0  0
   -1.8508    3.1085    0.0000 C   0  0  0  0  0  0  0  0  0  0  0  0
   -1.8796    3.9330    0.0000 C   0  0  0  0  0  0  0  0  0  0  0  0
   -1.1800    4.3702    0.0000 C   0  0  0  0  0  0  0  0  0  0  0  0
   -0.4515    3.9829    0.0000 C   0  0  0  0  0  0  0  0  0  0  0  0
   -0.4227    3.1584    0.0000 C   0  0  0  0  0  0  0  0  0  0  0  0
    0.4005    3.2126    0.0000 H   0  0  0  0  0  0  0  0  0  0  0  0
   -1.1224    2.7212    0.0000 C   0  0  0  0  0  0  0  0  0  0  0  0
    0.2481    4.4201    0.0000 H   0  0  0  0  0  0  0  0  0  0  0  0
   -1.2087    5.1947    0.0000 H   0  0  0  0  0  0  0  0  0  0  0  0
   -2.6080    4.3203    0.0000 H   0  0  0  0  0  0  0  0  0  0  0  0
   -0.3428    2.3341    0.0000 H   0  0  0  0  0  0  0  0  0  0  0  0
    1.2090    0.1828    0.0000 C   0  0  0  0  0  0  0  0  0  0  0  0
    1.0525    0.9928    0.0000 H   0  0  0  0  0  0  0  0  0  0  0  0
    0.7011   -0.4673    0.0000 H   0  0  0  0  0  0  0  0  0  0  0  0
    1.5181   -0.5821    0.0000 C   0  0  0  0  0  0  0  0  0  0  0  0
    2.1966   -1.0514    0.0000 H   0  0  0  0  0  0  0  0  0  0  0  0
    2.2997   -0.3181    0.0000 H   0  0  0  0  0  0  0  0  0  0  0  0
    1.0102   -1.2323    0.0000 O   0  0  0  0  0  0  0  0  0  0  0  0
    0.1932   -1.1174    0.0000 C   0  0  0  0  0  0  0  0  0  0  0  0
   -0.3147   -1.7675    0.0000 C   0  0  0  0  0  0  0  0  0  0  0  0
   -1.1317   -1.6527    0.0000 C   0  0  0  0  0  0  0  0  0  0  0  0
   -1.4407   -0.8878    0.0000 C   0  0  0  0  0  0  0  0  0  0  0  0
   -2.2577   -0.7730    0.0000 Cl  0  0  0  0  0  0  0  0  0  0  0  0
   -0.9328   -0.2377    0.0000 C   0  0  0  0  0  0  0  0  0  0  0  0
   -1.7367   -0.0521    0.0000 H   0  0  0  0  0  0  0  0  0  0  0  0
   -0.1158   -0.3525    0.0000 C   0  0  0  0  0  0  0  0  0  0  0  0
   -1.6396   -2.3028    0.0000 H   0  0  0  0  0  0  0  0  0  0  0  0
   -0.0057   -2.5325    0.0000 H   0  0  0  0  0  0  0  0  0  0  0  0
    0.4289    1.8779    0.0000 H   0  0  0  0  0  0  0  0  0  0  0  0
   -0.1215    1.3823    0.0000 H   0  0  0  0  0  0  0  0  0  0  0  0
    1.1569    2.6515    0.0000 H   0  0  0  0  0  0  0  0  0  0  0  0
    2.7341    1.4143    0.0000 H   0  0  0  0  0  0  0  0  0  0  0  0
    3.2844    1.9098    0.0000 H   0  0  0  0  0  0  0  0  0  0  0  0
    2.2859    3.6620    0.0000 C   0  0  0  0  0  0  0  0  0  0  0  0
    1.5575    4.0493    0.0000 H   0  0  0  0  0  0  0  0  0  0  0  0
    1.5575    3.2746    0.0000 H   0  0  0  0  0  0  0  0  0  0  0  0
    2.6040    3.6620    0.0000 C   0  0  0  0  0  0  0  0  0  0  0  0
    3.3497    3.3091    0.0000 H   0  0  0  0  0  0  0  0  0  0  0  0
    3.3497    4.0148    0.0000 H   0  0  0  0  0  0  0  0  0  0  0  0
    1.4540    6.0702    0.0000 H   0  0  0  0  0  0  0  0  0  0  0  0
    1.1569    4.6724    0.0000 H   0  0  0  0  0  0  0  0  0  0  0  0
  1  2  1  0  0  0  0
  2  3  2  0  0  0  0
  2  4  1  0  0  0  0
  4  5  1  0  0  0  0
  5  6  1  0  0  0  0
  5  7  1  0  0  0  0
  5  8  1  0  0  0  0
  8  9  1  0  0  0  0
  9 10  1  0  0  0  0
 10 11  1  0  0  0  0
 11 12  1  0  0  0  0
 12 13  2  0  0  0  0
 12 14  1  0  0  0  0
 14 15  1  0  0  0  0
 15 16  1  0  0  0  0
 16 17  2  0  0  0  0
 16 18  1  0  0  0  0
 18 19  1  0  0  0  0
 19 20  2  0  0  0  0
 20 21  1  0  0  0  0
 20 22  1  0  0  0  0
 22 23  2  0  0  0  0
 23 24  1  0  0  0  0
 23 25  1  0  0  0  0
 25 26  2  0  0  0  0
 26 27  1  0  0  0  0
 27 28  2  0  0  0  0
 28 29  1  0  0  0  0
 29 30  1  0  0  0  0
 29 31  2  0  0  0  0
 19 31  1  0  0  0  0
 25 31  1  0  0  0  0
 28 32  1  0  0  0  0
 27 33  1  0  0  0  0
 26 34  1  0  0  0  0
 18 35  1  0  0  0  0
 15 36  1  0  0  0  0
 36 37  1  0  0  0  0
 36 38  1  0  0  0  0
 36 39  1  0  0  0  0
 39 40  1  0  0  0  0
 39 41  1  0  0  0  0
 39 42  1  0  0  0  0
 42 43  1  0  0  0  0
 43 44  2  0  0  0  0
 44 45  1  0  0  0  0
 45 46  2  0  0  0  0
 46 47  1  0  0  0  0
 46 48  1  0  0  0  0
 48 49  1  0  0  0  0
 48 50  2  0  0  0  0
 15 50  1  0  0  0  0
 43 50  1  0  0  0  0
 45 51  1  0  0  0  0
 44 52  1  0  0  0  0
 14 53  1  0  0  0  0
 14 54  1  0  0  0  0
 11 55  1  0  0  0  0
 10 56  1  0  0  0  0
 10 57  1  0  0  0  0
  9 58  1  0  0  0  0
  4 58  1  0  0  0  0
 58 59  1  0  0  0  0
 58 60  1  0  0  0  0
  9 61  1  0  0  0  0
  4 61  1  0  0  0  0
 61 62  1  0  0  0  0
 61 63  1  0  0  0  0
  1 64  1  0  0  0  0
  1 65  1  0  0  0  0
M  END
> <Potency>
9.0510757047538

> <pIC50>
5.043299802576421

> <Outcome>
Active

> <is_active>
1

$$$$

  Mrv1921 08232120312D          

 50 54  0  0  0  0            999 V2000
    0.7145   -2.8875    0.0000 O   0  0  0  0  0  0  0  0  0  0  0  0
    1.4289   -2.4750    0.0000 C   0  0  0  0  0  0  0  0  0  0  0  0
    2.1434   -2.8875    0.0000 N   0  0  0  0  0  0  0  0  0  0  0  0
    2.1434   -3.7125    0.0000 C   0  0  0  0  0  0  0  0  0  0  0  0
    2.8579   -4.1250    0.0000 C   0  0  0  0  0  0  0  0  0  0  0  0
    3.5724   -3.7125    0.0000 H   0  0  0  0  0  0  0  0  0  0  0  0
    2.8579   -4.9500    0.0000 N   0  0  0  0  0  0  0  0  0  0  0  0
    2.1434   -5.3625    0.0000 C   0  0  0  0  0  0  0  0  0  0  0  0
    2.1434   -6.1875    0.0000 H   0  0  0  0  0  0  0  0  0  0  0  0
    1.4289   -4.9500    0.0000 C   0  0  0  0  0  0  0  0  0  0  0  0
    0.7145   -5.3625    0.0000 C   0  0  0  0  0  0  0  0  0  0  0  0
    0.0000   -4.9500    0.0000 C   0  0  0  0  0  0  0  0  0  0  0  0
    0.0000   -4.1250    0.0000 C   0  0  0  0  0  0  0  0  0  0  0  0
    0.7145   -3.7125    0.0000 C   0  0  0  0  0  0  0  0  0  0  0  0
    1.4289   -3.3000    0.0000 H   0  0  0  0  0  0  0  0  0  0  0  0
    1.4289   -4.1250    0.0000 C   0  0  0  0  0  0  0  0  0  0  0  0
   -0.7145   -3.7125    0.0000 H   0  0  0  0  0  0  0  0  0  0  0  0
   -0.7145   -5.3625    0.0000 H   0  0  0  0  0  0  0  0  0  0  0  0
    0.7145   -6.1875    0.0000 H   0  0  0  0  0  0  0  0  0  0  0  0
    2.8579   -2.4750    0.0000 H   0  0  0  0  0  0  0  0  0  0  0  0
    1.4289   -1.6500    0.0000 C   0  0  0  0  0  0  0  0  0  0  0  0
    0.7145   -1.2375    0.0000 C   0  0  0  0  0  0  0  0  0  0  0  0
   -0.1091   -1.2855    0.0000 H   0  0  0  0  0  0  0  0  0  0  0  0
    0.2611   -1.9268    0.0000 H   0  0  0  0  0  0  0  0  0  0  0  0
    0.7145   -0.4125    0.0000 C   0  0  0  0  0  0  0  0  0  0  0  0
    0.2611    0.2768    0.0000 H   0  0  0  0  0  0  0  0  0  0  0  0
   -0.1091   -0.3645    0.0000 H   0  0  0  0  0  0  0  0  0  0  0  0
    1.4289    0.0000    0.0000 N   0  0  0  0  0  0  0  0  0  0  0  0
    1.4289    0.8250    0.0000 C   0  0  0  0  0  0  0  0  0  0  0  0
    2.1434    1.2375    0.0000 C   0  0  0  0  0  0  0  0  0  0  0  0
    2.2296    2.0580    0.0000 C   0  0  0  0  0  0  0  0  0  0  0  0
    1.6166    2.6100    0.0000 H   0  0  0  0  0  0  0  0  0  0  0  0
    3.0366    2.2295    0.0000 C   0  0  0  0  0  0  0  0  0  0  0  0
    3.3722    2.9832    0.0000 H   0  0  0  0  0  0  0  0  0  0  0  0
    3.4491    1.5150    0.0000 N   0  0  0  0  0  0  0  0  0  0  0  0
    2.8971    0.9019    0.0000 N   0  0  0  0  0  0  0  0  0  0  0  0
    3.6607    0.5896    0.0000 H   0  0  0  0  0  0  0  0  0  0  0  0
    0.9756    1.5143    0.0000 H   0  0  0  0  0  0  0  0  0  0  0  0
    0.6053    0.8730    0.0000 H   0  0  0  0  0  0  0  0  0  0  0  0
    2.1434   -0.4125    0.0000 C   0  0  0  0  0  0  0  0  0  0  0  0
    2.8579    0.0000    0.0000 C   0  0  0  0  0  0  0  0  0  0  0  0
    3.5724   -0.4125    0.0000 C   0  0  0  0  0  0  0  0  0  0  0  0
    3.5724   -1.2375    0.0000 C   0  0  0  0  0  0  0  0  0  0  0  0
    4.2868   -1.6500    0.0000 Cl  0  0  0  0  0  0  0  0  0  0  0  0
    2.8579   -1.6500    0.0000 C   0  0  0  0  0  0  0  0  0  0  0  0
    2.8579   -0.8250    0.0000 H   0  0  0  0  0  0  0  0  0  0  0  0
    2.1434   -1.2375    0.0000 C   0  0  0  0  0  0  0  0  0  0  0  0
    4.2868   -0.0000    0.0000 H   0  0  0  0  0  0  0  0  0  0  0  0
    2.1525    0.4279    0.0000 H   0  0  0  0  0  0  0  0  0  0  0  0
    2.1434   -2.0625    0.0000 H   0  0  0  0  0  0  0  0  0  0  0  0
  1  2  2  0  0  0  0
  2  3  1  0  0  0  0
  3  4  1  0  0  0  0
  4  5  2  0  0  0  0
  5  6  1  0  0  0  0
  5  7  1  0  0  0  0
  7  8  2  0  0  0  0
  8  9  1  0  0  0  0
  8 10  1  0  0  0  0
 10 11  2  0  0  0  0
 11 12  1  0  0  0  0
 12 13  2  0  0  0  0
 13 14  1  0  0  0  0
 14 15  1  0  0  0  0
 14 16  2  0  0  0  0
  4 16  1  0  0  0  0
 10 16  1  0  0  0  0
 13 17  1  0  0  0  0
 12 18  1  0  0  0  0
 11 19  1  0  0  0  0
  3 20  1  0  0  0  0
  2 21  1  0  0  0  0
 21 22  1  0  0  0  0
 22 23  1  0  0  0  0
 22 24  1  0  0  0  0
 22 25  1  0  0  0  0
 25 26  1  0  0  0  0
 25 27  1  0  0  0  0
 25 28  1  0  0  0  0
 28 29  1  0  0  0  0
 29 30  1  0  0  0  0
 30 31  2  0  0  0  0
 31 32  1  0  0  0  0
 31 33  1  0  0  0  0
 33 34  1  0  0  0  0
 33 35  2  0  0  0  0
 35 36  1  0  0  0  0
 30 36  1  0  0  0  0
 36 37  1  0  0  0  0
 29 38  1  0  0  0  0
 29 39  1  0  0  0  0
 28 40  1  0  0  0  0
 40 41  2  0  0  0  0
 41 42  1  0  0  0  0
 42 43  2  0  0  0  0
 43 44  1  0  0  0  0
 43 45  1  0  0  0  0
 45 46  1  0  0  0  0
 45 47  2  0  0  0  0
 21 47  1  0  0  0  0
 40 47  1  0  0  0  0
 42 48  1  0  0  0  0
 41 49  1  0  0  0  0
 21 50  1  0  0  0  0
M  END
> <Potency>
0.803119953758729

> <pIC50>
6.095219583781294

> <Outcome>
Active

> <is_active>
1

$$$$

  Mrv1921 08232120312D          

 50 54  0  0  0  0            999 V2000
    0.7145   -2.8875    0.0000 O   0  0  0  0  0  0  0  0  0  0  0  0
    1.4289   -2.4750    0.0000 C   0  0  0  0  0  0  0  0  0  0  0  0
    2.1434   -2.8875    0.0000 N   0  0  0  0  0  0  0  0  0  0  0  0
    2.1434   -3.7125    0.0000 C   0  0  0  0  0  0  0  0  0  0  0  0
    2.8579   -4.1250    0.0000 C   0  0  0  0  0  0  0  0  0  0  0  0
    3.5724   -3.7125    0.0000 H   0  0  0  0  0  0  0  0  0  0  0  0
    2.8579   -4.9500    0.0000 N   0  0  0  0  0  0  0  0  0  0  0  0
    2.1434   -5.3625    0.0000 C   0  0  0  0  0  0  0  0  0  0  0  0
    2.1434   -6.1875    0.0000 H   0  0  0  0  0  0  0  0  0  0  0  0
    1.4289   -4.9500    0.0000 C   0  0  0  0  0  0  0  0  0  0  0  0
    0.7145   -5.3625    0.0000 C   0  0  0  0  0  0  0  0  0  0  0  0
    0.0000   -4.9500    0.0000 C   0  0  0  0  0  0  0  0  0  0  0  0
    0.0000   -4.1250    0.0000 C   0  0  0  0  0  0  0  0  0  0  0  0
    0.7145   -3.7125    0.0000 C   0  0  0  0  0  0  0  0  0  0  0  0
    1.4289   -3.3000    0.0000 H   0  0  0  0  0  0  0  0  0  0  0  0
    1.4289   -4.1250    0.0000 C   0  0  0  0  0  0  0  0  0  0  0  0
   -0.7145   -3.7125    0.0000 H   0  0  0  0  0  0  0  0  0  0  0  0
   -0.7145   -5.3625    0.0000 H   0  0  0  0  0  0  0  0  0  0  0  0
    0.7145   -6.1875    0.0000 H   0  0  0  0  0  0  0  0  0  0  0  0
    2.8579   -2.4750    0.0000 H   0  0  0  0  0  0  0  0  0  0  0  0
    1.4289   -1.6500    0.0000 C   0  0  0  0  0  0  0  0  0  0  0  0
    0.7145   -1.2375    0.0000 C   0  0  0  0  0  0  0  0  0  0  0  0
   -0.1091   -1.2855    0.0000 H   0  0  0  0  0  0  0  0  0  0  0  0
    0.2611   -1.9268    0.0000 H   0  0  0  0  0  0  0  0  0  0  0  0
    0.7145   -0.4125    0.0000 C   0  0  0  0  0  0  0  0  0  0  0  0
    0.2611    0.2768    0.0000 H   0  0  0  0  0  0  0  0  0  0  0  0
   -0.1091   -0.3645    0.0000 H   0  0  0  0  0  0  0  0  0  0  0  0
    1.4289    0.0000    0.0000 N   0  0  0  0  0  0  0  0  0  0  0  0
    1.4289    0.8250    0.0000 C   0  0  0  0  0  0  0  0  0  0  0  0
    2.1434    1.2375    0.0000 C   0  0  0  0  0  0  0  0  0  0  0  0
    2.2296    2.0580    0.0000 C   0  0  0  0  0  0  0  0  0  0  0  0
    1.6166    2.6100    0.0000 H   0  0  0  0  0  0  0  0  0  0  0  0
    3.0366    2.2295    0.0000 N   0  0  0  0  0  0  0  0  0  0  0  0
    3.4491    1.5150    0.0000 C   0  0  0  0  0  0  0  0  0  0  0  0
    4.2696    1.4288    0.0000 H   0  0  0  0  0  0  0  0  0  0  0  0
    2.8971    0.9019    0.0000 N   0  0  0  0  0  0  0  0  0  0  0  0
    3.6607    0.5896    0.0000 H   0  0  0  0  0  0  0  0  0  0  0  0
    0.9756    1.5143    0.0000 H   0  0  0  0  0  0  0  0  0  0  0  0
    0.6053    0.8730    0.0000 H   0  0  0  0  0  0  0  0  0  0  0  0
    2.1434   -0.4125    0.0000 C   0  0  0  0  0  0  0  0  0  0  0  0
    2.8579    0.0000    0.0000 C   0  0  0  0  0  0  0  0  0  0  0  0
    3.5724   -0.4125    0.0000 C   0  0  0  0  0  0  0  0  0  0  0  0
    3.5724   -1.2375    0.0000 C   0  0  0  0  0  0  0  0  0  0  0  0
    4.2868   -1.6500    0.0000 Cl  0  0  0  0  0  0  0  0  0  0  0  0
    2.8579   -1.6500    0.0000 C   0  0  0  0  0  0  0  0  0  0  0  0
    2.8579   -0.8250    0.0000 H   0  0  0  0  0  0  0  0  0  0  0  0
    2.1434   -1.2375    0.0000 C   0  0  0  0  0  0  0  0  0  0  0  0
    4.2868   -0.0000    0.0000 H   0  0  0  0  0  0  0  0  0  0  0  0
    2.1525    0.4279    0.0000 H   0  0  0  0  0  0  0  0  0  0  0  0
    2.1434   -2.0625    0.0000 H   0  0  0  0  0  0  0  0  0  0  0  0
  1  2  2  0  0  0  0
  2  3  1  0  0  0  0
  3  4  1  0  0  0  0
  4  5  2  0  0  0  0
  5  6  1  0  0  0  0
  5  7  1  0  0  0  0
  7  8  2  0  0  0  0
  8  9  1  0  0  0  0
  8 10  1  0  0  0  0
 10 11  2  0  0  0  0
 11 12  1  0  0  0  0
 12 13  2  0  0  0  0
 13 14  1  0  0  0  0
 14 15  1  0  0  0  0
 14 16  2  0  0  0  0
  4 16  1  0  0  0  0
 10 16  1  0  0  0  0
 13 17  1  0  0  0  0
 12 18  1  0  0  0  0
 11 19  1  0  0  0  0
  3 20  1  0  0  0  0
  2 21  1  0  0  0  0
 21 22  1  0  0  0  0
 22 23  1  0  0  0  0
 22 24  1  0  0  0  0
 22 25  1  0  0  0  0
 25 26  1  0  0  0  0
 25 27  1  0  0  0  0
 25 28  1  0  0  0  0
 28 29  1  0  0  0  0
 29 30  1  0  0  0  0
 30 31  2  0  0  0  0
 31 32  1  0  0  0  0
 31 33  1  0  0  0  0
 33 34  2  0  0  0  0
 34 35  1  0  0  0  0
 34 36  1  0  0  0  0
 30 36  1  0  0  0  0
 36 37  1  0  0  0  0
 29 38  1  0  0  0  0
 29 39  1  0  0  0  0
 28 40  1  0  0  0  0
 40 41  2  0  0  0  0
 41 42  1  0  0  0  0
 42 43  2  0  0  0  0
 43 44  1  0  0  0  0
 43 45  1  0  0  0  0
 45 46  1  0  0  0  0
 45 47  2  0  0  0  0
 21 47  1  0  0  0  0
 40 47  1  0  0  0  0
 42 48  1  0  0  0  0
 41 49  1  0  0  0  0
 21 50  1  0  0  0  0
M  END
> <Potency>
1.11673521507318

> <pIC50>
5.95204978862522

> <Outcome>
Active

> <is_active>
1

$$$$

  Mrv1921 08232120312D          

 45 48  0  0  0  0            999 V2000
    0.0000   -2.4750    0.0000 O   0  0  0  0  0  0  0  0  0  0  0  0
    0.7145   -2.8875    0.0000 C   0  0  0  0  0  0  0  0  0  0  0  0
    0.7145   -3.7125    0.0000 C   0  0  0  0  0  0  0  0  0  0  0  0
    0.0000   -4.1250    0.0000 C   0  0  0  0  0  0  0  0  0  0  0  0
    0.0000   -4.9500    0.0000 C   0  0  0  0  0  0  0  0  0  0  0  0
    0.7145   -5.3625    0.0000 H   0  0  0  0  0  0  0  0  0  0  0  0
   -0.7145   -5.3625    0.0000 C   0  0  0  0  0  0  0  0  0  0  0  0
   -0.7145   -6.1875    0.0000 Cl  0  0  0  0  0  0  0  0  0  0  0  0
   -1.4289   -4.9500    0.0000 C   0  0  0  0  0  0  0  0  0  0  0  0
   -2.1434   -5.3625    0.0000 H   0  0  0  0  0  0  0  0  0  0  0  0
   -1.4289   -4.1250    0.0000 C   0  0  0  0  0  0  0  0  0  0  0  0
   -2.1434   -3.7125    0.0000 O   0  0  0  0  0  0  0  0  0  0  0  0
   -2.8579   -4.1250    0.0000 C   0  0  0  0  0  0  0  0  0  0  0  0
   -2.8579   -4.9500    0.0000 C   0  0  0  0  0  0  0  0  0  0  0  0
   -2.1434   -4.5375    0.0000 H   0  0  0  0  0  0  0  0  0  0  0  0
   -3.5724   -5.3625    0.0000 C   0  0  0  0  0  0  0  0  0  0  0  0
   -3.5724   -6.1875    0.0000 H   0  0  0  0  0  0  0  0  0  0  0  0
   -4.2868   -4.9500    0.0000 C   0  0  0  0  0  0  0  0  0  0  0  0
   -5.0013   -5.3625    0.0000 H   0  0  0  0  0  0  0  0  0  0  0  0
   -4.2868   -4.1250    0.0000 C   0  0  0  0  0  0  0  0  0  0  0  0
   -5.0013   -3.7125    0.0000 O   0  0  0  0  0  0  0  0  0  0  0  0
   -3.5724   -3.7125    0.0000 N   0  0  0  0  0  0  0  0  0  0  0  0
   -3.5724   -2.8875    0.0000 H   0  0  0  0  0  0  0  0  0  0  0  0
   -0.7145   -3.7125    0.0000 C   0  0  0  0  0  0  0  0  0  0  0  0
   -0.7145   -2.8875    0.0000 H   0  0  0  0  0  0  0  0  0  0  0  0
    1.1678   -4.4018    0.0000 H   0  0  0  0  0  0  0  0  0  0  0  0
    1.5381   -3.7605    0.0000 H   0  0  0  0  0  0  0  0  0  0  0  0
    1.4289   -2.4750    0.0000 N   0  0  0  0  0  0  0  0  0  0  0  0
    1.4289   -1.6500    0.0000 C   0  0  0  0  0  0  0  0  0  0  0  0
    0.7145   -1.2375    0.0000 C   0  0  0  0  0  0  0  0  0  0  0  0
    0.0000   -1.6500    0.0000 H   0  0  0  0  0  0  0  0  0  0  0  0
    0.7145   -0.4125    0.0000 N   0  0  0  0  0  0  0  0  0  0  0  0
    1.4289    0.0000    0.0000 C   0  0  0  0  0  0  0  0  0  0  0  0
    1.4289    0.8250    0.0000 H   0  0  0  0  0  0  0  0  0  0  0  0
    2.1434   -0.4125    0.0000 C   0  0  0  0  0  0  0  0  0  0  0  0
    2.8579    0.0000    0.0000 C   0  0  0  0  0  0  0  0  0  0  0  0
    3.5724   -0.4125    0.0000 C   0  0  0  0  0  0  0  0  0  0  0  0
    3.5724   -1.2375    0.0000 C   0  0  0  0  0  0  0  0  0  0  0  0
    2.8579   -1.6500    0.0000 C   0  0  0  0  0  0  0  0  0  0  0  0
    2.8579   -2.4750    0.0000 H   0  0  0  0  0  0  0  0  0  0  0  0
    2.1434   -1.2375    0.0000 C   0  0  0  0  0  0  0  0  0  0  0  0
    4.2868   -1.6500    0.0000 H   0  0  0  0  0  0  0  0  0  0  0  0
    4.2868   -0.0000    0.0000 H   0  0  0  0  0  0  0  0  0  0  0  0
    2.8579    0.8250    0.0000 H   0  0  0  0  0  0  0  0  0  0  0  0
    2.1434   -2.8875    0.0000 H   0  0  0  0  0  0  0  0  0  0  0  0
  1  2  2  0  0  0  0
  2  3  1  0  0  0  0
  3  4  1  0  0  0  0
  4  5  2  0  0  0  0
  5  6  1  0  0  0  0
  5  7  1  0  0  0  0
  7  8  1  0  0  0  0
  7  9  2  0  0  0  0
  9 10  1  0  0  0  0
  9 11  1  0  0  0  0
 11 12  1  0  0  0  0
 12 13  1  0  0  0  0
 13 14  4  0  0  0  0
 14 15  1  0  0  0  0
 14 16  4  0  0  0  0
 16 17  1  0  0  0  0
 16 18  4  0  0  0  0
 18 19  1  0  0  0  0
 18 20  4  0  0  0  0
 20 21  2  0  0  0  0
 20 22  4  0  0  0  0
 13 22  4  0  0  0  0
 22 23  1  0  0  0  0
 11 24  2  0  0  0  0
  4 24  1  0  0  0  0
 24 25  1  0  0  0  0
  3 26  1  0  0  0  0
  3 27  1  0  0  0  0
  2 28  1  0  0  0  0
 28 29  1  0  0  0  0
 29 30  2  0  0  0  0
 30 31  1  0  0  0  0
 30 32  1  0  0  0  0
 32 33  2  0  0  0  0
 33 34  1  0  0  0  0
 33 35  1  0  0  0  0
 35 36  2  0  0  0  0
 36 37  1  0  0  0  0
 37 38  2  0  0  0  0
 38 39  1  0  0  0  0
 39 40  1  0  0  0  0
 39 41  2  0  0  0  0
 29 41  1  0  0  0  0
 35 41  1  0  0  0  0
 38 42  1  0  0  0  0
 37 43  1  0  0  0  0
 36 44  1  0  0  0  0
 28 45  1  0  0  0  0
M  END
> <Potency>
1.97563074661534

> <pIC50>
5.704294223560564

> <Outcome>
Active

> <is_active>
1

$$$$

  Mrv1921 08232120312D          

 57 62  0  0  0  0            999 V2000
    2.1434   -2.8875    0.0000 O   0  0  0  0  0  0  0  0  0  0  0  0
    1.4289   -2.4750    0.0000 C   0  0  0  0  0  0  0  0  0  0  0  0
    0.7145   -2.8875    0.0000 N   0  0  0  0  0  0  0  0  0  0  0  0
    0.7145   -3.7125    0.0000 C   0  0  0  0  0  0  0  0  0  0  0  0
    1.4289   -4.1250    0.0000 C   0  0  0  0  0  0  0  0  0  0  0  0
    2.1434   -3.7125    0.0000 H   0  0  0  0  0  0  0  0  0  0  0  0
    1.4289   -4.9500    0.0000 N   0  0  0  0  0  0  0  0  0  0  0  0
    0.7145   -5.3625    0.0000 C   0  0  0  0  0  0  0  0  0  0  0  0
    0.7145   -6.1875    0.0000 H   0  0  0  0  0  0  0  0  0  0  0  0
    0.0000   -4.9500    0.0000 C   0  0  0  0  0  0  0  0  0  0  0  0
   -0.7145   -5.3625    0.0000 C   0  0  0  0  0  0  0  0  0  0  0  0
   -1.4289   -4.9500    0.0000 C   0  0  0  0  0  0  0  0  0  0  0  0
   -2.1434   -5.3625    0.0000 C   0  0  0  0  0  0  0  0  0  0  0  0
   -2.8579   -4.9500    0.0000 N   0  0  0  0  0  0  0  0  0  0  0  0
   -3.6548   -5.1635    0.0000 C   0  0  0  0  0  0  0  0  0  0  0  0
   -4.3692   -5.5760    0.0000 H   0  0  0  0  0  0  0  0  0  0  0  0
   -3.6548   -5.9885    0.0000 H   0  0  0  0  0  0  0  0  0  0  0  0
   -3.8683   -4.3666    0.0000 C   0  0  0  0  0  0  0  0  0  0  0  0
   -4.6652   -4.5802    0.0000 C   0  0  0  0  0  0  0  0  0  0  0  0
   -5.3797   -4.9927    0.0000 H   0  0  0  0  0  0  0  0  0  0  0  0
   -4.6652   -5.4052    0.0000 H   0  0  0  0  0  0  0  0  0  0  0  0
   -4.8787   -3.7833    0.0000 N   0  0  0  0  0  0  0  0  0  0  0  0
   -5.5932   -3.3708    0.0000 H   0  0  0  0  0  0  0  0  0  0  0  0
   -4.0818   -3.5697    0.0000 C   0  0  0  0  0  0  0  0  0  0  0  0
   -3.3674   -3.1572    0.0000 H   0  0  0  0  0  0  0  0  0  0  0  0
   -4.0818   -2.7447    0.0000 H   0  0  0  0  0  0  0  0  0  0  0  0
   -3.0714   -4.1531    0.0000 C   0  0  0  0  0  0  0  0  0  0  0  0
   -2.3569   -3.7406    0.0000 H   0  0  0  0  0  0  0  0  0  0  0  0
   -3.0714   -3.3281    0.0000 H   0  0  0  0  0  0  0  0  0  0  0  0
   -2.5137   -6.0997    0.0000 H   0  0  0  0  0  0  0  0  0  0  0  0
   -1.7732   -6.0997    0.0000 H   0  0  0  0  0  0  0  0  0  0  0  0
   -1.4289   -4.1250    0.0000 C   0  0  0  0  0  0  0  0  0  0  0  0
   -0.7145   -3.7125    0.0000 C   0  0  0  0  0  0  0  0  0  0  0  0
   -0.7145   -2.8875    0.0000 H   0  0  0  0  0  0  0  0  0  0  0  0
    0.0000   -4.1250    0.0000 C   0  0  0  0  0  0  0  0  0  0  0  0
   -2.1434   -3.7125    0.0000 H   0  0  0  0  0  0  0  0  0  0  0  0
   -0.7145   -6.1875    0.0000 H   0  0  0  0  0  0  0  0  0  0  0  0
    0.0000   -2.4750    0.0000 H   0  0  0  0  0  0  0  0  0  0  0  0
    1.4289   -1.6500    0.0000 C   0  0  0  0  0  0  0  0  0  0  0  0
    0.7145   -1.2375    0.0000 C   0  0  0  0  0  0  0  0  0  0  0  0
   -0.1091   -1.2855    0.0000 H   0  0  0  0  0  0  0  0  0  0  0  0
    0.2611   -1.9268    0.0000 H   0  0  0  0  0  0  0  0  0  0  0  0
    0.7145   -0.4125    0.0000 C   0  0  0  0  0  0  0  0  0  0  0  0
    0.2611    0.2768    0.0000 H   0  0  0  0  0  0  0  0  0  0  0  0
   -0.1091   -0.3645    0.0000 H   0  0  0  0  0  0  0  0  0  0  0  0
    1.4289    0.0000    0.0000 O   0  0  0  0  0  0  0  0  0  0  0  0
    2.1434   -0.4125    0.0000 C   0  0  0  0  0  0  0  0  0  0  0  0
    2.8579    0.0000    0.0000 C   0  0  0  0  0  0  0  0  0  0  0  0
    3.5724   -0.4125    0.0000 C   0  0  0  0  0  0  0  0  0  0  0  0
    3.5724   -1.2375    0.0000 C   0  0  0  0  0  0  0  0  0  0  0  0
    4.2868   -1.6500    0.0000 Cl  0  0  0  0  0  0  0  0  0  0  0  0
    2.8579   -1.6500    0.0000 C   0  0  0  0  0  0  0  0  0  0  0  0
    3.2704   -2.3645    0.0000 H   0  0  0  0  0  0  0  0  0  0  0  0
    2.1434   -1.2375    0.0000 C   0  0  0  0  0  0  0  0  0  0  0  0
    4.2868   -0.0000    0.0000 H   0  0  0  0  0  0  0  0  0  0  0  0
    2.8579    0.8250    0.0000 H   0  0  0  0  0  0  0  0  0  0  0  0
    2.1434   -2.0625    0.0000 H   0  0  0  0  0  0  0  0  0  0  0  0
  1  2  2  0  0  0  0
  2  3  1  0  0  0  0
  3  4  1  0  0  0  0
  4  5  2  0  0  0  0
  5  6  1  0  0  0  0
  5  7  1  0  0  0  0
  7  8  2  0  0  0  0
  8  9  1  0  0  0  0
  8 10  1  0  0  0  0
 10 11  2  0  0  0  0
 11 12  1  0  0  0  0
 12 13  1  0  0  0  0
 13 14  1  0  0  0  0
 14 15  1  0  0  0  0
 15 16  1  0  0  0  0
 15 17  1  0  0  0  0
 15 18  1  0  0  0  0
 18 19  1  0  0  0  0
 19 20  1  0  0  0  0
 19 21  1  0  0  0  0
 19 22  1  0  0  0  0
 22 23  1  0  0  0  0
 22 24  1  0  0  0  0
 18 24  1  0  0  0  0
 24 25  1  0  0  0  0
 24 26  1  0  0  0  0
 18 27  1  0  0  0  0
 14 27  1  0  0  0  0
 27 28  1  0  0  0  0
 27 29  1  0  0  0  0
 13 30  1  0  0  0  0
 13 31  1  0  0  0  0
 12 32  2  0  0  0  0
 32 33  1  0  0  0  0
 33 34  1  0  0  0  0
 33 35  2  0  0  0  0
  4 35  1  0  0  0  0
 10 35  1  0  0  0  0
 32 36  1  0  0  0  0
 11 37  1  0  0  0  0
  3 38  1  0  0  0  0
  2 39  1  0  0  0  0
 39 40  1  0  0  0  0
 40 41  1  0  0  0  0
 40 42  1  0  0  0  0
 40 43  1  0  0  0  0
 43 44  1  0  0  0  0
 43 45  1  0  0  0  0
 43 46  1  0  0  0  0
 46 47  1  0  0  0  0
 47 48  2  0  0  0  0
 48 49  1  0  0  0  0
 49 50  2  0  0  0  0
 50 51  1  0  0  0  0
 50 52  1  0  0  0  0
 52 53  1  0  0  0  0
 52 54  2  0  0  0  0
 39 54  1  0  0  0  0
 47 54  1  0  0  0  0
 49 55  1  0  0  0  0
 48 56  1  0  0  0  0
 39 57  1  0  0  0  0
M  END
> <Potency>
1.43743815787051

> <pIC50>
5.842410830654554

> <Outcome>
Active

> <is_active>
1

$$$$

  Mrv1921 08232120312D          

 73 78  0  0  0  0            999 V2000
    1.1866   -0.0842    0.0000 C   0  0  0  0  0  0  0  0  0  0  0  0
    1.0718   -0.9012    0.0000 C   0  0  0  0  0  0  0  0  0  0  0  0
    0.3434   -1.2885    0.0000 N   0  0  0  0  0  0  0  0  0  0  0  0
    0.4866   -2.1010    0.0000 N   0  0  0  0  0  0  0  0  0  0  0  0
   -0.0865   -2.6944    0.0000 C   0  0  0  0  0  0  0  0  0  0  0  0
   -0.6799   -2.1213    0.0000 H   0  0  0  0  0  0  0  0  0  0  0  0
   -0.6596   -3.2879    0.0000 H   0  0  0  0  0  0  0  0  0  0  0  0
    0.5070   -3.2675    0.0000 H   0  0  0  0  0  0  0  0  0  0  0  0
    1.3036   -2.2158    0.0000 C   0  0  0  0  0  0  0  0  0  0  0  0
    1.6909   -2.9442    0.0000 N   0  0  0  0  0  0  0  0  0  0  0  0
    2.5154   -2.9730    0.0000 C   0  0  0  0  0  0  0  0  0  0  0  0
    3.2201   -2.5440    0.0000 H   0  0  0  0  0  0  0  0  0  0  0  0
    2.5921   -2.1516    0.0000 H   0  0  0  0  0  0  0  0  0  0  0  0
    2.9027   -3.7014    0.0000 C   0  0  0  0  0  0  0  0  0  0  0  0
    3.6266   -4.0972    0.0000 H   0  0  0  0  0  0  0  0  0  0  0  0
    3.6524   -3.3571    0.0000 H   0  0  0  0  0  0  0  0  0  0  0  0
    2.4655   -4.4011    0.0000 O   0  0  0  0  0  0  0  0  0  0  0  0
    1.6410   -4.3723    0.0000 C   0  0  0  0  0  0  0  0  0  0  0  0
    0.9364   -4.8013    0.0000 H   0  0  0  0  0  0  0  0  0  0  0  0
    1.5644   -5.1937    0.0000 H   0  0  0  0  0  0  0  0  0  0  0  0
    1.2537   -3.6438    0.0000 C   0  0  0  0  0  0  0  0  0  0  0  0
    0.6768   -4.2335    0.0000 H   0  0  0  0  0  0  0  0  0  0  0  0
    2.0782   -3.6726    0.0000 H   0  0  0  0  0  0  0  0  0  0  0  0
    1.6653   -1.4743    0.0000 C   0  0  0  0  0  0  0  0  0  0  0  0
    2.4777   -1.3310    0.0000 C   0  0  0  0  0  0  0  0  0  0  0  0
    2.7599   -0.5558    0.0000 N   0  0  0  0  0  0  0  0  0  0  0  0
    3.5724   -0.4125    0.0000 C   0  0  0  0  0  0  0  0  0  0  0  0
    4.1027   -1.0445    0.0000 C   0  0  0  0  0  0  0  0  0  0  0  0
    4.6330   -0.4125    0.0000 C   0  0  0  0  0  0  0  0  0  0  0  0
    5.4454   -0.5558    0.0000 O   0  0  0  0  0  0  0  0  0  0  0  0
    4.3508    0.3627    0.0000 N   0  0  0  0  0  0  0  0  0  0  0  0
    3.5383    0.5060    0.0000 C   0  0  0  0  0  0  0  0  0  0  0  0
    3.0080   -0.1260    0.0000 C   0  0  0  0  0  0  0  0  0  0  0  0
    2.7259    0.6493    0.0000 H   0  0  0  0  0  0  0  0  0  0  0  0
    2.1956    0.0173    0.0000 N   0  0  0  0  0  0  0  0  0  0  0  0
    1.9134    0.7925    0.0000 C   0  0  0  0  0  0  0  0  0  0  0  0
    1.5288    1.5224    0.0000 H   0  0  0  0  0  0  0  0  0  0  0  0
    2.4437    1.4245    0.0000 C   0  0  0  0  0  0  0  0  0  0  0  0
    2.1615    2.1998    0.0000 C   0  0  0  0  0  0  0  0  0  0  0  0
    2.6918    2.8317    0.0000 C   0  0  0  0  0  0  0  0  0  0  0  0
    3.5043    2.6885    0.0000 C   0  0  0  0  0  0  0  0  0  0  0  0
    3.7865    1.9132    0.0000 C   0  0  0  0  0  0  0  0  0  0  0  0
    4.5989    1.7700    0.0000 H   0  0  0  0  0  0  0  0  0  0  0  0
    3.2562    1.2813    0.0000 C   0  0  0  0  0  0  0  0  0  0  0  0
    4.0346    3.3205    0.0000 H   0  0  0  0  0  0  0  0  0  0  0  0
    2.4097    3.6070    0.0000 H   0  0  0  0  0  0  0  0  0  0  0  0
    1.5439    2.7467    0.0000 H   0  0  0  0  0  0  0  0  0  0  0  0
    4.8811    0.9947    0.0000 H   0  0  0  0  0  0  0  0  0  0  0  0
    3.3882   -1.4570    0.0000 C   0  0  0  0  0  0  0  0  0  0  0  0
    4.1027   -1.8695    0.0000 H   0  0  0  0  0  0  0  0  0  0  0  0
    2.7661   -1.9989    0.0000 H   0  0  0  0  0  0  0  0  0  0  0  0
    3.3882   -2.2820    0.0000 C   0  0  0  0  0  0  0  0  0  0  0  0
    3.5830   -3.0837    0.0000 H   0  0  0  0  0  0  0  0  0  0  0  0
    2.6345   -2.6176    0.0000 H   0  0  0  0  0  0  0  0  0  0  0  0
    4.1027   -2.6945    0.0000 O   0  0  0  0  0  0  0  0  0  0  0  0
    4.8171   -2.2820    0.0000 C   0  0  0  0  0  0  0  0  0  0  0  0
    5.5316   -2.6945    0.0000 C   0  0  0  0  0  0  0  0  0  0  0  0
    6.2461   -2.2820    0.0000 C   0  0  0  0  0  0  0  0  0  0  0  0
    6.2461   -1.4570    0.0000 C   0  0  0  0  0  0  0  0  0  0  0  0
    6.9605   -1.0445    0.0000 Cl  0  0  0  0  0  0  0  0  0  0  0  0
    5.5316   -1.0445    0.0000 C   0  0  0  0  0  0  0  0  0  0  0  0
    6.2074   -0.5713    0.0000 H   0  0  0  0  0  0  0  0  0  0  0  0
    4.8171   -1.4570    0.0000 C   0  0  0  0  0  0  0  0  0  0  0  0
    6.9605   -2.6945    0.0000 H   0  0  0  0  0  0  0  0  0  0  0  0
    5.5316   -3.5195    0.0000 H   0  0  0  0  0  0  0  0  0  0  0  0
    4.3965   -0.4503    0.0000 H   0  0  0  0  0  0  0  0  0  0  0  0
    4.1583    0.1683    0.0000 H   0  0  0  0  0  0  0  0  0  0  0  0
    3.2902   -1.1877    0.0000 H   0  0  0  0  0  0  0  0  0  0  0  0
    1.9474   -0.6990    0.0000 H   0  0  0  0  0  0  0  0  0  0  0  0
    1.9924   -1.9982    0.0000 H   0  0  0  0  0  0  0  0  0  0  0  0
    2.0036   -0.1990    0.0000 H   0  0  0  0  0  0  0  0  0  0  0  0
    1.3014    0.7328    0.0000 H   0  0  0  0  0  0  0  0  0  0  0  0
    0.3696    0.0306    0.0000 H   0  0  0  0  0  0  0  0  0  0  0  0
  1  2  1  0  0  0  0
  2  3  2  0  0  0  0
  3  4  1  0  0  0  0
  4  5  1  0  0  0  0
  5  6  1  0  0  0  0
  5  7  1  0  0  0  0
  5  8  1  0  0  0  0
  4  9  1  0  0  0  0
  9 10  1  0  0  0  0
 10 11  1  0  0  0  0
 11 12  1  0  0  0  0
 11 13  1  0  0  0  0
 11 14  1  0  0  0  0
 14 15  1  0  0  0  0
 14 16  1  0  0  0  0
 14 17  1  0  0  0  0
 17 18  1  0  0  0  0
 18 19  1  0  0  0  0
 18 20  1  0  0  0  0
 18 21  1  0  0  0  0
 10 21  1  0  0  0  0
 21 22  1  0  0  0  0
 21 23  1  0  0  0  0
  9 24  2  0  0  0  0
  2 24  1  0  0  0  0
 24 25  1  0  0  0  0
 25 26  1  0  0  0  0
 26 27  1  0  0  0  0
 27 28  1  0  0  0  0
 28 29  1  0  0  0  0
 29 30  2  0  0  0  0
 29 31  1  0  0  0  0
 31 32  1  0  0  0  0
 32 33  2  0  0  0  0
 33 34  1  0  0  0  0
 33 35  1  0  0  0  0
 35 36  2  0  0  0  0
 36 37  1  0  0  0  0
 36 38  1  0  0  0  0
 38 39  2  0  0  0  0
 39 40  1  0  0  0  0
 40 41  2  0  0  0  0
 41 42  1  0  0  0  0
 42 43  1  0  0  0  0
 42 44  2  0  0  0  0
 32 44  1  0  0  0  0
 38 44  1  0  0  0  0
 41 45  1  0  0  0  0
 40 46  1  0  0  0  0
 39 47  1  0  0  0  0
 31 48  1  0  0  0  0
 28 49  1  0  0  0  0
 49 50  1  0  0  0  0
 49 51  1  0  0  0  0
 49 52  1  0  0  0  0
 52 53  1  0  0  0  0
 52 54  1  0  0  0  0
 52 55  1  0  0  0  0
 55 56  1  0  0  0  0
 56 57  2  0  0  0  0
 57 58  1  0  0  0  0
 58 59  2  0  0  0  0
 59 60  1  0  0  0  0
 59 61  1  0  0  0  0
 61 62  1  0  0  0  0
 61 63  2  0  0  0  0
 28 63  1  0  0  0  0
 56 63  1  0  0  0  0
 58 64  1  0  0  0  0
 57 65  1  0  0  0  0
 27 66  1  0  0  0  0
 27 67  1  0  0  0  0
 26 68  1  0  0  0  0
 25 69  1  0  0  0  0
 25 70  1  0  0  0  0
  1 71  1  0  0  0  0
  1 72  1  0  0  0  0
  1 73  1  0  0  0  0
M  END
> <Potency>
9.57419130718763

> <pIC50>
5.018897898890224

> <Outcome>
Active

> <is_active>
1

$$$$

  Mrv1921 08232120312D          

 46 49  0  0  0  0            999 V2000
    2.8579   -5.7750    0.0000 C   0  0  0  0  0  0  0  0  0  0  0  0
    2.1434   -5.3625    0.0000 S   0  0  0  0  0  0  0  0  0  0  0  0
    2.5559   -4.6480    0.0000 O   0  0  0  0  0  0  0  0  0  0  0  0
    1.7309   -6.0770    0.0000 O   0  0  0  0  0  0  0  0  0  0  0  0
    1.4289   -4.9500    0.0000 N   0  0  0  0  0  0  0  0  0  0  0  0
    0.7145   -5.3625    0.0000 C   0  0  0  0  0  0  0  0  0  0  0  0
    0.3442   -6.0997    0.0000 H   0  0  0  0  0  0  0  0  0  0  0  0
    1.0847   -6.0997    0.0000 H   0  0  0  0  0  0  0  0  0  0  0  0
    0.0000   -4.9500    0.0000 C   0  0  0  0  0  0  0  0  0  0  0  0
   -0.7145   -5.3625    0.0000 C   0  0  0  0  0  0  0  0  0  0  0  0
   -1.4289   -4.9500    0.0000 C   0  0  0  0  0  0  0  0  0  0  0  0
   -1.4289   -4.1250    0.0000 C   0  0  0  0  0  0  0  0  0  0  0  0
   -2.1434   -3.7125    0.0000 Cl  0  0  0  0  0  0  0  0  0  0  0  0
   -0.7145   -3.7125    0.0000 C   0  0  0  0  0  0  0  0  0  0  0  0
   -0.7145   -2.8875    0.0000 H   0  0  0  0  0  0  0  0  0  0  0  0
    0.0000   -4.1250    0.0000 C   0  0  0  0  0  0  0  0  0  0  0  0
    0.7145   -3.7125    0.0000 C   0  0  0  0  0  0  0  0  0  0  0  0
    0.7145   -2.8875    0.0000 C   0  0  0  0  0  0  0  0  0  0  0  0
    0.0000   -2.4750    0.0000 O   0  0  0  0  0  0  0  0  0  0  0  0
    1.4289   -2.4750    0.0000 N   0  0  0  0  0  0  0  0  0  0  0  0
    1.4289   -1.6500    0.0000 C   0  0  0  0  0  0  0  0  0  0  0  0
    0.7145   -1.2375    0.0000 C   0  0  0  0  0  0  0  0  0  0  0  0
    0.0000   -1.6500    0.0000 H   0  0  0  0  0  0  0  0  0  0  0  0
    0.7145   -0.4125    0.0000 N   0  0  0  0  0  0  0  0  0  0  0  0
    1.4289    0.0000    0.0000 C   0  0  0  0  0  0  0  0  0  0  0  0
    1.4289    0.8250    0.0000 H   0  0  0  0  0  0  0  0  0  0  0  0
    2.1434   -0.4125    0.0000 C   0  0  0  0  0  0  0  0  0  0  0  0
    2.8579    0.0000    0.0000 C   0  0  0  0  0  0  0  0  0  0  0  0
    3.5724   -0.4125    0.0000 C   0  0  0  0  0  0  0  0  0  0  0  0
    3.5724   -1.2375    0.0000 C   0  0  0  0  0  0  0  0  0  0  0  0
    2.8579   -1.6500    0.0000 C   0  0  0  0  0  0  0  0  0  0  0  0
    2.8579   -2.4750    0.0000 F   0  0  0  0  0  0  0  0  0  0  0  0
    2.1434   -1.2375    0.0000 C   0  0  0  0  0  0  0  0  0  0  0  0
    4.2868   -1.6500    0.0000 H   0  0  0  0  0  0  0  0  0  0  0  0
    4.2868   -0.0000    0.0000 H   0  0  0  0  0  0  0  0  0  0  0  0
    2.8579    0.8250    0.0000 H   0  0  0  0  0  0  0  0  0  0  0  0
    2.2539   -2.4750    0.0000 H   0  0  0  0  0  0  0  0  0  0  0  0
    1.4289   -3.3000    0.0000 H   0  0  0  0  0  0  0  0  0  0  0  0
    1.4289   -4.1250    0.0000 C   0  0  0  0  0  0  0  0  0  0  0  0
    2.2042   -4.4072    0.0000 H   0  0  0  0  0  0  0  0  0  0  0  0
    2.2042   -3.8428    0.0000 H   0  0  0  0  0  0  0  0  0  0  0  0
   -2.1434   -5.3625    0.0000 H   0  0  0  0  0  0  0  0  0  0  0  0
   -0.7145   -6.1875    0.0000 H   0  0  0  0  0  0  0  0  0  0  0  0
    2.4454   -6.4895    0.0000 H   0  0  0  0  0  0  0  0  0  0  0  0
    3.5724   -6.1875    0.0000 H   0  0  0  0  0  0  0  0  0  0  0  0
    3.2704   -5.0605    0.0000 H   0  0  0  0  0  0  0  0  0  0  0  0
  1  2  1  0  0  0  0
  2  3  2  0  0  0  0
  2  4  2  0  0  0  0
  2  5  1  0  0  0  0
  5  6  1  0  0  0  0
  6  7  1  0  0  0  0
  6  8  1  0  0  0  0
  6  9  1  0  0  0  0
  9 10  2  0  0  0  0
 10 11  1  0  0  0  0
 11 12  2  0  0  0  0
 12 13  1  0  0  0  0
 12 14  1  0  0  0  0
 14 15  1  0  0  0  0
 14 16  2  0  0  0  0
  9 16  1  0  0  0  0
 16 17  1  0  0  0  0
 17 18  1  0  0  0  0
 18 19  2  0  0  0  0
 18 20  1  0  0  0  0
 20 21  1  0  0  0  0
 21 22  2  0  0  0  0
 22 23  1  0  0  0  0
 22 24  1  0  0  0  0
 24 25  2  0  0  0  0
 25 26  1  0  0  0  0
 25 27  1  0  0  0  0
 27 28  2  0  0  0  0
 28 29  1  0  0  0  0
 29 30  2  0  0  0  0
 30 31  1  0  0  0  0
 31 32  1  0  0  0  0
 31 33  2  0  0  0  0
 21 33  1  0  0  0  0
 27 33  1  0  0  0  0
 30 34  1  0  0  0  0
 29 35  1  0  0  0  0
 28 36  1  0  0  0  0
 20 37  1  0  0  0  0
 17 38  1  0  0  0  0
 17 39  1  0  0  0  0
  5 39  1  0  0  0  0
 39 40  1  0  0  0  0
 39 41  1  0  0  0  0
 11 42  1  0  0  0  0
 10 43  1  0  0  0  0
  1 44  1  0  0  0  0
  1 45  1  0  0  0  0
  1 46  1  0  0  0  0
M  END
> <Potency>
0.950566791596229

> <pIC50>
6.022017362015203

> <Outcome>
Active

> <is_active>
1

$$$$

  Mrv1921 08232120312D          

 50 53  0  0  0  0            999 V2000
    0.7145   -2.8875    0.0000 O   0  0  0  0  0  0  0  0  0  0  0  0
    1.4289   -2.4750    0.0000 C   0  0  0  0  0  0  0  0  0  0  0  0
    2.1434   -2.8875    0.0000 N   0  0  0  0  0  0  0  0  0  0  0  0
    2.1434   -3.7125    0.0000 C   0  0  0  0  0  0  0  0  0  0  0  0
    2.8579   -4.1250    0.0000 C   0  0  0  0  0  0  0  0  0  0  0  0
    3.5724   -3.7125    0.0000 H   0  0  0  0  0  0  0  0  0  0  0  0
    2.8579   -4.9500    0.0000 N   0  0  0  0  0  0  0  0  0  0  0  0
    2.1434   -5.3625    0.0000 C   0  0  0  0  0  0  0  0  0  0  0  0
    2.1434   -6.1875    0.0000 H   0  0  0  0  0  0  0  0  0  0  0  0
    1.4289   -4.9500    0.0000 C   0  0  0  0  0  0  0  0  0  0  0  0
    0.7145   -5.3625    0.0000 C   0  0  0  0  0  0  0  0  0  0  0  0
    0.0000   -4.9500    0.0000 C   0  0  0  0  0  0  0  0  0  0  0  0
    0.0000   -4.1250    0.0000 C   0  0  0  0  0  0  0  0  0  0  0  0
    0.7145   -3.7125    0.0000 C   0  0  0  0  0  0  0  0  0  0  0  0
    1.4289   -3.3000    0.0000 H   0  0  0  0  0  0  0  0  0  0  0  0
    1.4289   -4.1250    0.0000 C   0  0  0  0  0  0  0  0  0  0  0  0
   -0.7145   -3.7125    0.0000 H   0  0  0  0  0  0  0  0  0  0  0  0
   -0.7145   -5.3625    0.0000 H   0  0  0  0  0  0  0  0  0  0  0  0
    0.7145   -6.1875    0.0000 H   0  0  0  0  0  0  0  0  0  0  0  0
    2.8579   -2.4750    0.0000 H   0  0  0  0  0  0  0  0  0  0  0  0
    1.4289   -1.6500    0.0000 C   0  0  0  0  0  0  0  0  0  0  0  0
    0.7145   -1.2375    0.0000 C   0  0  0  0  0  0  0  0  0  0  0  0
   -0.1091   -1.2855    0.0000 H   0  0  0  0  0  0  0  0  0  0  0  0
    0.2611   -1.9268    0.0000 H   0  0  0  0  0  0  0  0  0  0  0  0
    0.7145   -0.4125    0.0000 N   0  0  0  0  0  0  0  0  0  0  0  0
    0.0000    0.0000    0.0000 S   0  0  0  0  0  0  0  0  0  0  0  0
    0.4125    0.7145    0.0000 O   0  0  0  0  0  0  0  0  0  0  0  0
   -0.4125   -0.7145    0.0000 O   0  0  0  0  0  0  0  0  0  0  0  0
   -0.7145    0.4125    0.0000 C   0  0  0  0  0  0  0  0  0  0  0  0
   -0.7145    1.2375    0.0000 C   0  0  0  0  0  0  0  0  0  0  0  0
   -1.4289    1.6500    0.0000 O   0  0  0  0  0  0  0  0  0  0  0  0
   -1.4289    2.4750    0.0000 H   0  0  0  0  0  0  0  0  0  0  0  0
    0.1091    1.2855    0.0000 H   0  0  0  0  0  0  0  0  0  0  0  0
   -0.2611    1.9268    0.0000 H   0  0  0  0  0  0  0  0  0  0  0  0
   -1.5381    0.3645    0.0000 H   0  0  0  0  0  0  0  0  0  0  0  0
   -1.1678   -0.2768    0.0000 H   0  0  0  0  0  0  0  0  0  0  0  0
    1.4289    0.0000    0.0000 C   0  0  0  0  0  0  0  0  0  0  0  0
    1.7992    0.7372    0.0000 H   0  0  0  0  0  0  0  0  0  0  0  0
    1.0587    0.7372    0.0000 H   0  0  0  0  0  0  0  0  0  0  0  0
    2.1434   -0.4125    0.0000 C   0  0  0  0  0  0  0  0  0  0  0  0
    2.8579    0.0000    0.0000 C   0  0  0  0  0  0  0  0  0  0  0  0
    3.5724   -0.4125    0.0000 C   0  0  0  0  0  0  0  0  0  0  0  0
    3.5724   -1.2375    0.0000 C   0  0  0  0  0  0  0  0  0  0  0  0
    4.2868   -1.6500    0.0000 Cl  0  0  0  0  0  0  0  0  0  0  0  0
    2.8579   -1.6500    0.0000 C   0  0  0  0  0  0  0  0  0  0  0  0
    2.8579   -0.8250    0.0000 H   0  0  0  0  0  0  0  0  0  0  0  0
    2.1434   -1.2375    0.0000 C   0  0  0  0  0  0  0  0  0  0  0  0
    4.2868   -0.0000    0.0000 H   0  0  0  0  0  0  0  0  0  0  0  0
    2.8579    0.8250    0.0000 H   0  0  0  0  0  0  0  0  0  0  0  0
    2.1434   -2.0625    0.0000 H   0  0  0  0  0  0  0  0  0  0  0  0
  1  2  2  0  0  0  0
  2  3  1  0  0  0  0
  3  4  1  0  0  0  0
  4  5  2  0  0  0  0
  5  6  1  0  0  0  0
  5  7  1  0  0  0  0
  7  8  2  0  0  0  0
  8  9  1  0  0  0  0
  8 10  1  0  0  0  0
 10 11  2  0  0  0  0
 11 12  1  0  0  0  0
 12 13  2  0  0  0  0
 13 14  1  0  0  0  0
 14 15  1  0  0  0  0
 14 16  2  0  0  0  0
  4 16  1  0  0  0  0
 10 16  1  0  0  0  0
 13 17  1  0  0  0  0
 12 18  1  0  0  0  0
 11 19  1  0  0  0  0
  3 20  1  0  0  0  0
  2 21  1  0  0  0  0
 21 22  1  0  0  0  0
 22 23  1  0  0  0  0
 22 24  1  0  0  0  0
 22 25  1  0  0  0  0
 25 26  1  0  0  0  0
 26 27  2  0  0  0  0
 26 28  2  0  0  0  0
 26 29  1  0  0  0  0
 29 30  1  0  0  0  0
 30 31  1  0  0  0  0
 31 32  1  0  0  0  0
 30 33  1  0  0  0  0
 30 34  1  0  0  0  0
 29 35  1  0  0  0  0
 29 36  1  0  0  0  0
 25 37  1  0  0  0  0
 37 38  1  0  0  0  0
 37 39  1  0  0  0  0
 37 40  1  0  0  0  0
 40 41  2  0  0  0  0
 41 42  1  0  0  0  0
 42 43  2  0  0  0  0
 43 44  1  0  0  0  0
 43 45  1  0  0  0  0
 45 46  1  0  0  0  0
 45 47  2  0  0  0  0
 21 47  1  0  0  0  0
 40 47  1  0  0  0  0
 42 48  1  0  0  0  0
 41 49  1  0  0  0  0
 21 50  1  0  0  0  0
M  END
> <Potency>
0.232084453021105

> <pIC50>
6.6343539512859655

> <Outcome>
Active

> <is_active>
1

$$$$

  Mrv1921 08232120312D          

 49 52  0  0  0  0            999 V2000
    3.5724   -1.2375    0.0000 O   0  0  0  0  0  0  0  0  0  0  0  0
    3.5724   -0.4125    0.0000 C   0  0  0  0  0  0  0  0  0  0  0  0
    2.8579    0.0000    0.0000 N   0  0  0  0  0  0  0  0  0  0  0  0
    2.1434   -0.4125    0.0000 C   0  0  0  0  0  0  0  0  0  0  0  0
    2.1434   -1.2375    0.0000 C   0  0  0  0  0  0  0  0  0  0  0  0
    2.8579   -1.6500    0.0000 H   0  0  0  0  0  0  0  0  0  0  0  0
    1.4289   -1.6500    0.0000 N   0  0  0  0  0  0  0  0  0  0  0  0
    0.7145   -1.2375    0.0000 C   0  0  0  0  0  0  0  0  0  0  0  0
    0.0000   -1.6500    0.0000 H   0  0  0  0  0  0  0  0  0  0  0  0
    0.7145   -0.4125    0.0000 C   0  0  0  0  0  0  0  0  0  0  0  0
   -0.0000    0.0000    0.0000 C   0  0  0  0  0  0  0  0  0  0  0  0
    0.0000    0.8250    0.0000 C   0  0  0  0  0  0  0  0  0  0  0  0
    0.7145    1.2375    0.0000 C   0  0  0  0  0  0  0  0  0  0  0  0
    1.4289    0.8250    0.0000 C   0  0  0  0  0  0  0  0  0  0  0  0
    2.1434    1.2375    0.0000 H   0  0  0  0  0  0  0  0  0  0  0  0
    1.4289    0.0000    0.0000 C   0  0  0  0  0  0  0  0  0  0  0  0
    0.7145    2.0625    0.0000 H   0  0  0  0  0  0  0  0  0  0  0  0
   -0.7145    1.2375    0.0000 H   0  0  0  0  0  0  0  0  0  0  0  0
   -0.7145   -0.4125    0.0000 H   0  0  0  0  0  0  0  0  0  0  0  0
    2.8579    0.8250    0.0000 H   0  0  0  0  0  0  0  0  0  0  0  0
    4.2868    0.0000    0.0000 C   0  0  0  0  0  0  0  0  0  0  0  0
    5.0013   -0.4125    0.0000 N   0  0  0  0  0  0  0  0  0  0  0  0
    5.7158    0.0000    0.0000 C   0  0  0  0  0  0  0  0  0  0  0  0
    5.7158    0.8250    0.0000 O   0  0  0  0  0  0  0  0  0  0  0  0
    6.4302   -0.4125    0.0000 C   0  0  0  0  0  0  0  0  0  0  0  0
    7.1839   -0.0769    0.0000 C   0  0  0  0  0  0  0  0  0  0  0  0
    7.7142    0.5550    0.0000 H   0  0  0  0  0  0  0  0  0  0  0  0
    6.9565    0.7161    0.0000 H   0  0  0  0  0  0  0  0  0  0  0  0
    7.7359   -0.6900    0.0000 C   0  0  0  0  0  0  0  0  0  0  0  0
    8.5009   -0.9991    0.0000 H   0  0  0  0  0  0  0  0  0  0  0  0
    8.4199   -0.2287    0.0000 H   0  0  0  0  0  0  0  0  0  0  0  0
    7.3234   -1.4045    0.0000 C   0  0  0  0  0  0  0  0  0  0  0  0
    7.2659   -2.2275    0.0000 H   0  0  0  0  0  0  0  0  0  0  0  0
    7.9736   -1.9124    0.0000 H   0  0  0  0  0  0  0  0  0  0  0  0
    6.5165   -1.2330    0.0000 O   0  0  0  0  0  0  0  0  0  0  0  0
    5.7383   -0.8618    0.0000 H   0  0  0  0  0  0  0  0  0  0  0  0
    5.4138   -1.1270    0.0000 H   0  0  0  0  0  0  0  0  0  0  0  0
    4.2868    0.8250    0.0000 C   0  0  0  0  0  0  0  0  0  0  0  0
    3.5724    1.2375    0.0000 C   0  0  0  0  0  0  0  0  0  0  0  0
    3.5724    0.4125    0.0000 H   0  0  0  0  0  0  0  0  0  0  0  0
    3.5724    2.0625    0.0000 C   0  0  0  0  0  0  0  0  0  0  0  0
    2.8579    2.4750    0.0000 H   0  0  0  0  0  0  0  0  0  0  0  0
    4.2868    2.4750    0.0000 C   0  0  0  0  0  0  0  0  0  0  0  0
    4.2868    3.3000    0.0000 H   0  0  0  0  0  0  0  0  0  0  0  0
    5.0013    2.0625    0.0000 C   0  0  0  0  0  0  0  0  0  0  0  0
    5.7158    2.4750    0.0000 Cl  0  0  0  0  0  0  0  0  0  0  0  0
    5.0013    1.2375    0.0000 C   0  0  0  0  0  0  0  0  0  0  0  0
    5.0013    0.4125    0.0000 H   0  0  0  0  0  0  0  0  0  0  0  0
    4.2868   -0.8250    0.0000 H   0  0  0  0  0  0  0  0  0  0  0  0
  1  2  2  0  0  0  0
  2  3  1  0  0  0  0
  3  4  1  0  0  0  0
  4  5  2  0  0  0  0
  5  6  1  0  0  0  0
  5  7  1  0  0  0  0
  7  8  2  0  0  0  0
  8  9  1  0  0  0  0
  8 10  1  0  0  0  0
 10 11  2  0  0  0  0
 11 12  1  0  0  0  0
 12 13  2  0  0  0  0
 13 14  1  0  0  0  0
 14 15  1  0  0  0  0
 14 16  2  0  0  0  0
  4 16  1  0  0  0  0
 10 16  1  0  0  0  0
 13 17  1  0  0  0  0
 12 18  1  0  0  0  0
 11 19  1  0  0  0  0
  3 20  1  0  0  0  0
  2 21  1  0  0  0  0
 21 22  1  0  0  0  0
 22 23  1  0  0  0  0
 23 24  2  0  0  0  0
 23 25  1  0  0  0  0
 25 26  1  0  0  0  0
 26 27  1  0  0  0  0
 26 28  1  0  0  0  0
 26 29  1  0  0  0  0
 29 30  1  0  0  0  0
 29 31  1  0  0  0  0
 29 32  1  0  0  0  0
 32 33  1  0  0  0  0
 32 34  1  0  0  0  0
 32 35  1  0  0  0  0
 25 35  1  0  0  0  0
 25 36  1  0  0  0  0
 22 37  1  0  0  0  0
 21 38  1  0  0  0  0
 38 39  2  0  0  0  0
 39 40  1  0  0  0  0
 39 41  1  0  0  0  0
 41 42  1  0  0  0  0
 41 43  2  0  0  0  0
 43 44  1  0  0  0  0
 43 45  1  0  0  0  0
 45 46  1  0  0  0  0
 45 47  2  0  0  0  0
 38 47  1  0  0  0  0
 47 48  1  0  0  0  0
 21 49  1  0  0  0  0
M  END
> <Potency>
2.28759334622511

> <pIC50>
5.640621175327813

> <Outcome>
Active

> <is_active>
1

$$$$

  Mrv1921 08232120312D          

 48 51  0  0  0  0            999 V2000
    0.0000   -2.4750    0.0000 O   0  0  0  0  0  0  0  0  0  0  0  0
    0.7145   -2.8875    0.0000 C   0  0  0  0  0  0  0  0  0  0  0  0
    0.7145   -3.7125    0.0000 C   0  0  0  0  0  0  0  0  0  0  0  0
    0.0000   -4.1250    0.0000 C   0  0  0  0  0  0  0  0  0  0  0  0
    0.0000   -4.9500    0.0000 C   0  0  0  0  0  0  0  0  0  0  0  0
    0.7145   -5.3625    0.0000 H   0  0  0  0  0  0  0  0  0  0  0  0
   -0.7145   -5.3625    0.0000 C   0  0  0  0  0  0  0  0  0  0  0  0
   -0.7145   -6.1875    0.0000 Cl  0  0  0  0  0  0  0  0  0  0  0  0
   -1.4289   -4.9500    0.0000 C   0  0  0  0  0  0  0  0  0  0  0  0
   -2.1434   -5.3625    0.0000 H   0  0  0  0  0  0  0  0  0  0  0  0
   -1.4289   -4.1250    0.0000 C   0  0  0  0  0  0  0  0  0  0  0  0
   -2.1434   -3.7125    0.0000 N   0  0  0  0  0  0  0  0  0  0  0  0
   -2.8579   -4.1250    0.0000 C   0  0  0  0  0  0  0  0  0  0  0  0
   -2.8579   -4.9500    0.0000 C   0  0  0  0  0  0  0  0  0  0  0  0
   -2.1434   -4.5375    0.0000 H   0  0  0  0  0  0  0  0  0  0  0  0
   -3.5724   -5.3625    0.0000 C   0  0  0  0  0  0  0  0  0  0  0  0
   -3.5724   -6.1875    0.0000 H   0  0  0  0  0  0  0  0  0  0  0  0
   -4.2868   -4.9500    0.0000 C   0  0  0  0  0  0  0  0  0  0  0  0
   -5.0013   -5.3625    0.0000 C   0  0  0  0  0  0  0  0  0  0  0  0
   -5.7158   -5.7750    0.0000 F   0  0  0  0  0  0  0  0  0  0  0  0
   -4.5888   -6.0770    0.0000 F   0  0  0  0  0  0  0  0  0  0  0  0
   -5.4138   -4.6480    0.0000 F   0  0  0  0  0  0  0  0  0  0  0  0
   -4.2868   -4.1250    0.0000 C   0  0  0  0  0  0  0  0  0  0  0  0
   -5.0013   -3.7125    0.0000 H   0  0  0  0  0  0  0  0  0  0  0  0
   -3.5724   -3.7125    0.0000 N   0  0  0  0  0  0  0  0  0  0  0  0
   -2.1434   -2.8875    0.0000 H   0  0  0  0  0  0  0  0  0  0  0  0
   -0.7145   -3.7125    0.0000 C   0  0  0  0  0  0  0  0  0  0  0  0
   -0.7145   -2.8875    0.0000 H   0  0  0  0  0  0  0  0  0  0  0  0
    1.1678   -4.4018    0.0000 H   0  0  0  0  0  0  0  0  0  0  0  0
    1.5381   -3.7605    0.0000 H   0  0  0  0  0  0  0  0  0  0  0  0
    1.4289   -2.4750    0.0000 N   0  0  0  0  0  0  0  0  0  0  0  0
    1.4289   -1.6500    0.0000 C   0  0  0  0  0  0  0  0  0  0  0  0
    0.7145   -1.2375    0.0000 C   0  0  0  0  0  0  0  0  0  0  0  0
    0.0000   -1.6500    0.0000 H   0  0  0  0  0  0  0  0  0  0  0  0
    0.7145   -0.4125    0.0000 N   0  0  0  0  0  0  0  0  0  0  0  0
    1.4289    0.0000    0.0000 C   0  0  0  0  0  0  0  0  0  0  0  0
    1.4289    0.8250    0.0000 H   0  0  0  0  0  0  0  0  0  0  0  0
    2.1434   -0.4125    0.0000 C   0  0  0  0  0  0  0  0  0  0  0  0
    2.8579    0.0000    0.0000 C   0  0  0  0  0  0  0  0  0  0  0  0
    3.5724   -0.4125    0.0000 C   0  0  0  0  0  0  0  0  0  0  0  0
    3.5724   -1.2375    0.0000 C   0  0  0  0  0  0  0  0  0  0  0  0
    2.8579   -1.6500    0.0000 C   0  0  0  0  0  0  0  0  0  0  0  0
    2.8579   -2.4750    0.0000 H   0  0  0  0  0  0  0  0  0  0  0  0
    2.1434   -1.2375    0.0000 C   0  0  0  0  0  0  0  0  0  0  0  0
    4.2868   -1.6500    0.0000 H   0  0  0  0  0  0  0  0  0  0  0  0
    4.2868   -0.0000    0.0000 H   0  0  0  0  0  0  0  0  0  0  0  0
    2.8579    0.8250    0.0000 H   0  0  0  0  0  0  0  0  0  0  0  0
    2.1434   -2.8875    0.0000 H   0  0  0  0  0  0  0  0  0  0  0  0
  1  2  2  0  0  0  0
  2  3  1  0  0  0  0
  3  4  1  0  0  0  0
  4  5  2  0  0  0  0
  5  6  1  0  0  0  0
  5  7  1  0  0  0  0
  7  8  1  0  0  0  0
  7  9  2  0  0  0  0
  9 10  1  0  0  0  0
  9 11  1  0  0  0  0
 11 12  1  0  0  0  0
 12 13  1  0  0  0  0
 13 14  2  0  0  0  0
 14 15  1  0  0  0  0
 14 16  1  0  0  0  0
 16 17  1  0  0  0  0
 16 18  2  0  0  0  0
 18 19  1  0  0  0  0
 19 20  1  0  0  0  0
 19 21  1  0  0  0  0
 19 22  1  0  0  0  0
 18 23  1  0  0  0  0
 23 24  1  0  0  0  0
 23 25  2  0  0  0  0
 13 25  1  0  0  0  0
 12 26  1  0  0  0  0
 11 27  2  0  0  0  0
  4 27  1  0  0  0  0
 27 28  1  0  0  0  0
  3 29  1  0  0  0  0
  3 30  1  0  0  0  0
  2 31  1  0  0  0  0
 31 32  1  0  0  0  0
 32 33  2  0  0  0  0
 33 34  1  0  0  0  0
 33 35  1  0  0  0  0
 35 36  2  0  0  0  0
 36 37  1  0  0  0  0
 36 38  1  0  0  0  0
 38 39  2  0  0  0  0
 39 40  1  0  0  0  0
 40 41  2  0  0  0  0
 41 42  1  0  0  0  0
 42 43  1  0  0  0  0
 42 44  2  0  0  0  0
 32 44  1  0  0  0  0
 38 44  1  0  0  0  0
 41 45  1  0  0  0  0
 40 46  1  0  0  0  0
 39 47  1  0  0  0  0
 31 48  1  0  0  0  0
M  END
> <Potency>
2.19397719648801

> <pIC50>
5.658767890658705

> <Outcome>
Active

> <is_active>
1

$$$$

  Mrv1921 08232120312D          

 58 62  0  0  0  0            999 V2000
    5.7158   -0.8250    0.0000 O   0  0  0  0  0  0  0  0  0  0  0  0
    5.7158    0.0000    0.0000 C   0  0  0  0  0  0  0  0  0  0  0  0
    5.0013    0.4125    0.0000 C   0  0  0  0  0  0  0  0  0  0  0  0
    4.2868    0.0000    0.0000 N   0  0  0  0  0  0  0  0  0  0  0  0
    4.2006   -0.8205    0.0000 C   0  0  0  0  0  0  0  0  0  0  0  0
    4.4828   -1.5957    0.0000 H   0  0  0  0  0  0  0  0  0  0  0  0
    5.0011   -1.0201    0.0000 H   0  0  0  0  0  0  0  0  0  0  0  0
    3.3936   -0.9920    0.0000 C   0  0  0  0  0  0  0  0  0  0  0  0
    2.7435   -1.4999    0.0000 H   0  0  0  0  0  0  0  0  0  0  0  0
    3.4512   -1.8150    0.0000 H   0  0  0  0  0  0  0  0  0  0  0  0
    2.9811   -0.2775    0.0000 N   0  0  0  0  0  0  0  0  0  0  0  0
    2.1606   -0.1913    0.0000 C   0  0  0  0  0  0  0  0  0  0  0  0
    1.4070   -0.5269    0.0000 C   0  0  0  0  0  0  0  0  0  0  0  0
    0.6351   -0.8180    0.0000 H   0  0  0  0  0  0  0  0  0  0  0  0
    1.3686   -1.3510    0.0000 H   0  0  0  0  0  0  0  0  0  0  0  0
    1.4932    0.2936    0.0000 C   0  0  0  0  0  0  0  0  0  0  0  0
    1.6270    1.1077    0.0000 H   0  0  0  0  0  0  0  0  0  0  0  0
    0.7987    0.7389    0.0000 H   0  0  0  0  0  0  0  0  0  0  0  0
    2.4563    0.5789    0.0000 H   0  0  0  0  0  0  0  0  0  0  0  0
    3.5332    0.3356    0.0000 C   0  0  0  0  0  0  0  0  0  0  0  0
    3.3616    1.1425    0.0000 O   0  0  0  0  0  0  0  0  0  0  0  0
    5.3716    1.1497    0.0000 H   0  0  0  0  0  0  0  0  0  0  0  0
    4.6310    1.1497    0.0000 H   0  0  0  0  0  0  0  0  0  0  0  0
    6.4302    0.4125    0.0000 N   0  0  0  0  0  0  0  0  0  0  0  0
    7.1447    0.0000    0.0000 C   0  0  0  0  0  0  0  0  0  0  0  0
    7.8592    0.4125    0.0000 C   0  0  0  0  0  0  0  0  0  0  0  0
    7.8592    1.2375    0.0000 O   0  0  0  0  0  0  0  0  0  0  0  0
    8.5737    0.0000    0.0000 N   0  0  0  0  0  0  0  0  0  0  0  0
    9.2881    0.4125    0.0000 C   0  0  0  0  0  0  0  0  0  0  0  0
    9.2881    1.2375    0.0000 C   0  0  0  0  0  0  0  0  0  0  0  0
    8.5737    1.6500    0.0000 H   0  0  0  0  0  0  0  0  0  0  0  0
   10.0026    1.6500    0.0000 N   0  0  0  0  0  0  0  0  0  0  0  0
   10.7171    1.2375    0.0000 C   0  0  0  0  0  0  0  0  0  0  0  0
   11.4315    1.6500    0.0000 H   0  0  0  0  0  0  0  0  0  0  0  0
   10.7171    0.4125    0.0000 C   0  0  0  0  0  0  0  0  0  0  0  0
   11.4315    0.0000    0.0000 C   0  0  0  0  0  0  0  0  0  0  0  0
   11.4315   -0.8250    0.0000 C   0  0  0  0  0  0  0  0  0  0  0  0
   10.7171   -1.2375    0.0000 C   0  0  0  0  0  0  0  0  0  0  0  0
   10.0026   -0.8250    0.0000 C   0  0  0  0  0  0  0  0  0  0  0  0
    9.2881   -1.2375    0.0000 H   0  0  0  0  0  0  0  0  0  0  0  0
   10.0026    0.0000    0.0000 C   0  0  0  0  0  0  0  0  0  0  0  0
   10.7171   -2.0625    0.0000 H   0  0  0  0  0  0  0  0  0  0  0  0
   12.1460   -1.2375    0.0000 H   0  0  0  0  0  0  0  0  0  0  0  0
   12.1460    0.4125    0.0000 H   0  0  0  0  0  0  0  0  0  0  0  0
    8.5737   -0.8250    0.0000 H   0  0  0  0  0  0  0  0  0  0  0  0
    7.1447   -0.8250    0.0000 C   0  0  0  0  0  0  0  0  0  0  0  0
    7.8592   -1.2375    0.0000 C   0  0  0  0  0  0  0  0  0  0  0  0
    7.8592   -0.4125    0.0000 H   0  0  0  0  0  0  0  0  0  0  0  0
    7.8592   -2.0625    0.0000 C   0  0  0  0  0  0  0  0  0  0  0  0
    8.5737   -2.4750    0.0000 H   0  0  0  0  0  0  0  0  0  0  0  0
    7.1447   -2.4750    0.0000 C   0  0  0  0  0  0  0  0  0  0  0  0
    7.1447   -3.3000    0.0000 H   0  0  0  0  0  0  0  0  0  0  0  0
    6.4302   -2.0625    0.0000 C   0  0  0  0  0  0  0  0  0  0  0  0
    5.7158   -2.4750    0.0000 Cl  0  0  0  0  0  0  0  0  0  0  0  0
    6.4302   -1.2375    0.0000 C   0  0  0  0  0  0  0  0  0  0  0  0
    6.4302   -0.4125    0.0000 H   0  0  0  0  0  0  0  0  0  0  0  0
    7.1447    0.8250    0.0000 H   0  0  0  0  0  0  0  0  0  0  0  0
    6.4302    1.2375    0.0000 H   0  0  0  0  0  0  0  0  0  0  0  0
  1  2  2  0  0  0  0
  2  3  1  0  0  0  0
  3  4  1  0  0  0  0
  4  5  1  0  0  0  0
  5  6  1  0  0  0  0
  5  7  1  0  0  0  0
  5  8  1  0  0  0  0
  8  9  1  0  0  0  0
  8 10  1  0  0  0  0
  8 11  1  0  0  0  0
 11 12  1  0  0  0  0
 12 13  1  0  0  0  0
 13 14  1  0  0  0  0
 13 15  1  0  0  0  0
 13 16  1  0  0  0  0
 12 16  1  0  0  0  0
 16 17  1  0  0  0  0
 16 18  1  0  0  0  0
 12 19  1  0  0  0  0
 11 20  1  0  0  0  0
  4 20  1  0  0  0  0
 20 21  2  0  0  0  0
  3 22  1  0  0  0  0
  3 23  1  0  0  0  0
  2 24  1  0  0  0  0
 24 25  1  0  0  0  0
 25 26  1  0  0  0  0
 26 27  2  0  0  0  0
 26 28  1  0  0  0  0
 28 29  1  0  0  0  0
 29 30  2  0  0  0  0
 30 31  1  0  0  0  0
 30 32  1  0  0  0  0
 32 33  2  0  0  0  0
 33 34  1  0  0  0  0
 33 35  1  0  0  0  0
 35 36  2  0  0  0  0
 36 37  1  0  0  0  0
 37 38  2  0  0  0  0
 38 39  1  0  0  0  0
 39 40  1  0  0  0  0
 39 41  2  0  0  0  0
 29 41  1  0  0  0  0
 35 41  1  0  0  0  0
 38 42  1  0  0  0  0
 37 43  1  0  0  0  0
 36 44  1  0  0  0  0
 28 45  1  0  0  0  0
 25 46  1  0  0  0  0
 46 47  2  0  0  0  0
 47 48  1  0  0  0  0
 47 49  1  0  0  0  0
 49 50  1  0  0  0  0
 49 51  2  0  0  0  0
 51 52  1  0  0  0  0
 51 53  1  0  0  0  0
 53 54  1  0  0  0  0
 53 55  2  0  0  0  0
 46 55  1  0  0  0  0
 55 56  1  0  0  0  0
 25 57  1  0  0  0  0
 24 58  1  0  0  0  0
M  END
> <Potency>
2.34776259878291

> <pIC50>
5.629345820223035

> <Outcome>
Active

> <is_active>
1

$$$$

  Mrv1921 08232120312D          

 47 51  0  0  0  0            999 V2000
    1.6457    1.3592    0.0000 O   0  0  0  0  0  0  0  0  0  0  0  0
    2.1177    0.6825    0.0000 C   0  0  0  0  0  0  0  0  0  0  0  0
    2.7413    1.2226    0.0000 N   0  0  0  0  0  0  0  0  0  0  0  0
    2.5854    2.0328    0.0000 C   0  0  0  0  0  0  0  0  0  0  0  0
    1.8058    2.3028    0.0000 C   0  0  0  0  0  0  0  0  0  0  0  0
    0.9809    2.2937    0.0000 H   0  0  0  0  0  0  0  0  0  0  0  0
    1.6499    3.1129    0.0000 N   0  0  0  0  0  0  0  0  0  0  0  0
    2.2736    3.6530    0.0000 C   0  0  0  0  0  0  0  0  0  0  0  0
    2.1177    4.4632    0.0000 H   0  0  0  0  0  0  0  0  0  0  0  0
    3.0531    3.3830    0.0000 C   0  0  0  0  0  0  0  0  0  0  0  0
    3.6768    3.9231    0.0000 C   0  0  0  0  0  0  0  0  0  0  0  0
    4.4563    3.6530    0.0000 C   0  0  0  0  0  0  0  0  0  0  0  0
    4.6122    2.8429    0.0000 C   0  0  0  0  0  0  0  0  0  0  0  0
    3.9886    2.3028    0.0000 C   0  0  0  0  0  0  0  0  0  0  0  0
    4.1445    1.4927    0.0000 H   0  0  0  0  0  0  0  0  0  0  0  0
    3.2090    2.5729    0.0000 C   0  0  0  0  0  0  0  0  0  0  0  0
    5.3918    2.5729    0.0000 H   0  0  0  0  0  0  0  0  0  0  0  0
    5.0800    4.1931    0.0000 H   0  0  0  0  0  0  0  0  0  0  0  0
    3.5209    4.7332    0.0000 H   0  0  0  0  0  0  0  0  0  0  0  0
    3.5209    0.9526    0.0000 C   0  0  0  0  0  0  0  0  0  0  0  0
    4.3004    0.6825    0.0000 H   0  0  0  0  0  0  0  0  0  0  0  0
    2.8972    0.4125    0.0000 H   0  0  0  0  0  0  0  0  0  0  0  0
    3.6768    0.1425    0.0000 C   0  0  0  0  0  0  0  0  0  0  0  0
    3.9710   -0.6283    0.0000 H   0  0  0  0  0  0  0  0  0  0  0  0
    4.3976   -0.2589    0.0000 H   0  0  0  0  0  0  0  0  0  0  0  0
    3.0531   -0.3976    0.0000 C   0  0  0  0  0  0  0  0  0  0  0  0
    2.9463   -1.2157    0.0000 H   0  0  0  0  0  0  0  0  0  0  0  0
    3.5172   -1.0798    0.0000 H   0  0  0  0  0  0  0  0  0  0  0  0
    2.2736   -0.1276    0.0000 C   0  0  0  0  0  0  0  0  0  0  0  0
    2.4295   -0.9377    0.0000 C   0  0  0  0  0  0  0  0  0  0  0  0
    1.6499   -0.6677    0.0000 H   0  0  0  0  0  0  0  0  0  0  0  0
    2.5202   -1.7577    0.0000 H   0  0  0  0  0  0  0  0  0  0  0  0
    1.8058   -1.4778    0.0000 C   0  0  0  0  0  0  0  0  0  0  0  0
    1.1751   -2.0095    0.0000 H   0  0  0  0  0  0  0  0  0  0  0  0
    1.9401   -2.2918    0.0000 H   0  0  0  0  0  0  0  0  0  0  0  0
    1.0263   -1.2078    0.0000 N   0  0  0  0  0  0  0  0  0  0  0  0
    0.2156   -1.3610    0.0000 H   0  0  0  0  0  0  0  0  0  0  0  0
    0.8704   -0.3976    0.0000 C   0  0  0  0  0  0  0  0  0  0  0  0
    0.0908   -0.1276    0.0000 C   0  0  0  0  0  0  0  0  0  0  0  0
   -0.0651    0.6825    0.0000 C   0  0  0  0  0  0  0  0  0  0  0  0
    0.5586    1.2226    0.0000 C   0  0  0  0  0  0  0  0  0  0  0  0
    0.4027    2.0328    0.0000 Cl  0  0  0  0  0  0  0  0  0  0  0  0
    1.3381    0.9526    0.0000 C   0  0  0  0  0  0  0  0  0  0  0  0
    0.7145    0.4125    0.0000 H   0  0  0  0  0  0  0  0  0  0  0  0
    1.4940    0.1425    0.0000 C   0  0  0  0  0  0  0  0  0  0  0  0
   -0.8446    0.9526    0.0000 H   0  0  0  0  0  0  0  0  0  0  0  0
   -0.5328   -0.6677    0.0000 H   0  0  0  0  0  0  0  0  0  0  0  0
  1  2  2  0  0  0  0
  2  3  1  0  0  0  0
  3  4  1  0  0  0  0
  4  5  2  0  0  0  0
  5  6  1  0  0  0  0
  5  7  1  0  0  0  0
  7  8  2  0  0  0  0
  8  9  1  0  0  0  0
  8 10  1  0  0  0  0
 10 11  2  0  0  0  0
 11 12  1  0  0  0  0
 12 13  2  0  0  0  0
 13 14  1  0  0  0  0
 14 15  1  0  0  0  0
 14 16  2  0  0  0  0
  4 16  1  0  0  0  0
 10 16  1  0  0  0  0
 13 17  1  0  0  0  0
 12 18  1  0  0  0  0
 11 19  1  0  0  0  0
  3 20  1  0  0  0  0
 20 21  1  0  0  0  0
 20 22  1  0  0  0  0
 20 23  1  0  0  0  0
 23 24  1  0  0  0  0
 23 25  1  0  0  0  0
 23 26  1  0  0  0  0
 26 27  1  0  0  0  0
 26 28  1  0  0  0  0
 26 29  1  0  0  0  0
  2 29  1  0  0  0  0
 29 30  1  0  0  0  0
 30 31  1  0  0  0  0
 30 32  1  0  0  0  0
 30 33  1  0  0  0  0
 33 34  1  0  0  0  0
 33 35  1  0  0  0  0
 33 36  1  0  0  0  0
 36 37  1  0  0  0  0
 36 38  1  0  0  0  0
 38 39  2  0  0  0  0
 39 40  1  0  0  0  0
 40 41  2  0  0  0  0
 41 42  1  0  0  0  0
 41 43  1  0  0  0  0
 43 44  1  0  0  0  0
 43 45  2  0  0  0  0
 29 45  1  0  0  0  0
 38 45  1  0  0  0  0
 40 46  1  0  0  0  0
 39 47  1  0  0  0  0
M  END
> <Potency>
1.29163712524039

> <pIC50>
5.888859480645178

> <Outcome>
Active

> <is_active>
1

$$$$

  Mrv1921 08232120312D          

 46 49  0  0  0  0            999 V2000
    2.1434   -1.2375    0.0000 O   0  0  0  0  0  0  0  0  0  0  0  0
    2.8579   -0.8250    0.0000 C   0  0  0  0  0  0  0  0  0  0  0  0
    2.8579    0.0000    0.0000 N   0  0  0  0  0  0  0  0  0  0  0  0
    2.1434    0.4125    0.0000 C   0  0  0  0  0  0  0  0  0  0  0  0
    1.4289    0.0000    0.0000 C   0  0  0  0  0  0  0  0  0  0  0  0
    1.4289   -0.8250    0.0000 H   0  0  0  0  0  0  0  0  0  0  0  0
    0.7145    0.4125    0.0000 N   0  0  0  0  0  0  0  0  0  0  0  0
    0.7145    1.2375    0.0000 C   0  0  0  0  0  0  0  0  0  0  0  0
    0.0000    1.6500    0.0000 H   0  0  0  0  0  0  0  0  0  0  0  0
    1.4289    1.6500    0.0000 C   0  0  0  0  0  0  0  0  0  0  0  0
    1.4289    2.4750    0.0000 C   0  0  0  0  0  0  0  0  0  0  0  0
    2.1434    2.8875    0.0000 C   0  0  0  0  0  0  0  0  0  0  0  0
    2.8579    2.4750    0.0000 C   0  0  0  0  0  0  0  0  0  0  0  0
    2.8579    1.6500    0.0000 C   0  0  0  0  0  0  0  0  0  0  0  0
    3.5724    1.2375    0.0000 H   0  0  0  0  0  0  0  0  0  0  0  0
    2.1434    1.2375    0.0000 C   0  0  0  0  0  0  0  0  0  0  0  0
    3.5724    2.8875    0.0000 H   0  0  0  0  0  0  0  0  0  0  0  0
    2.1434    3.7125    0.0000 H   0  0  0  0  0  0  0  0  0  0  0  0
    0.7145    2.8875    0.0000 H   0  0  0  0  0  0  0  0  0  0  0  0
    3.5724    0.4125    0.0000 H   0  0  0  0  0  0  0  0  0  0  0  0
    3.5724   -1.2375    0.0000 C   0  0  0  0  0  0  0  0  0  0  0  0
    4.2868   -0.8250    0.0000 N   0  0  0  0  0  0  0  0  0  0  0  0
    4.2868    0.0000    0.0000 C   0  0  0  0  0  0  0  0  0  0  0  0
    5.0013    0.4125    0.0000 C   0  0  0  0  0  0  0  0  0  0  0  0
    5.4138    1.1270    0.0000 C   0  0  0  0  0  0  0  0  0  0  0  0
    5.8671    1.8162    0.0000 H   0  0  0  0  0  0  0  0  0  0  0  0
    4.9605    1.8162    0.0000 H   0  0  0  0  0  0  0  0  0  0  0  0
    5.8263    0.4125    0.0000 C   0  0  0  0  0  0  0  0  0  0  0  0
    6.5908    0.1023    0.0000 H   0  0  0  0  0  0  0  0  0  0  0  0
    6.5437    0.8198    0.0000 H   0  0  0  0  0  0  0  0  0  0  0  0
    5.5847   -0.1709    0.0000 H   0  0  0  0  0  0  0  0  0  0  0  0
    4.2868    0.8250    0.0000 H   0  0  0  0  0  0  0  0  0  0  0  0
    5.0013   -0.4125    0.0000 H   0  0  0  0  0  0  0  0  0  0  0  0
    5.0013   -1.2375    0.0000 H   0  0  0  0  0  0  0  0  0  0  0  0
    3.5724   -2.0625    0.0000 C   0  0  0  0  0  0  0  0  0  0  0  0
    4.2868   -2.4750    0.0000 C   0  0  0  0  0  0  0  0  0  0  0  0
    5.0013   -2.0625    0.0000 H   0  0  0  0  0  0  0  0  0  0  0  0
    4.2868   -3.3000    0.0000 C   0  0  0  0  0  0  0  0  0  0  0  0
    5.0013   -3.7125    0.0000 H   0  0  0  0  0  0  0  0  0  0  0  0
    3.5724   -3.7125    0.0000 C   0  0  0  0  0  0  0  0  0  0  0  0
    3.5724   -4.5375    0.0000 Cl  0  0  0  0  0  0  0  0  0  0  0  0
    2.8579   -3.3000    0.0000 C   0  0  0  0  0  0  0  0  0  0  0  0
    2.1434   -3.7125    0.0000 Cl  0  0  0  0  0  0  0  0  0  0  0  0
    2.8579   -2.4750    0.0000 C   0  0  0  0  0  0  0  0  0  0  0  0
    2.1434   -2.0625    0.0000 H   0  0  0  0  0  0  0  0  0  0  0  0
    3.5724   -0.4125    0.0000 H   0  0  0  0  0  0  0  0  0  0  0  0
  1  2  2  0  0  0  0
  2  3  1  0  0  0  0
  3  4  1  0  0  0  0
  4  5  2  0  0  0  0
  5  6  1  0  0  0  0
  5  7  1  0  0  0  0
  7  8  2  0  0  0  0
  8  9  1  0  0  0  0
  8 10  1  0  0  0  0
 10 11  2  0  0  0  0
 11 12  1  0  0  0  0
 12 13  2  0  0  0  0
 13 14  1  0  0  0  0
 14 15  1  0  0  0  0
 14 16  2  0  0  0  0
  4 16  1  0  0  0  0
 10 16  1  0  0  0  0
 13 17  1  0  0  0  0
 12 18  1  0  0  0  0
 11 19  1  0  0  0  0
  3 20  1  0  0  0  0
  2 21  1  0  0  0  0
 21 22  1  0  0  0  0
 22 23  1  0  0  0  0
 23 24  1  0  0  0  0
 24 25  1  0  0  0  0
 25 26  1  0  0  0  0
 25 27  1  0  0  0  0
 25 28  1  0  0  0  0
 24 28  1  0  0  0  0
 28 29  1  0  0  0  0
 28 30  1  0  0  0  0
 24 31  1  0  0  0  0
 23 32  1  0  0  0  0
 23 33  1  0  0  0  0
 22 34  1  0  0  0  0
 21 35  1  0  0  0  0
 35 36  2  0  0  0  0
 36 37  1  0  0  0  0
 36 38  1  0  0  0  0
 38 39  1  0  0  0  0
 38 40  2  0  0  0  0
 40 41  1  0  0  0  0
 40 42  1  0  0  0  0
 42 43  1  0  0  0  0
 42 44  2  0  0  0  0
 35 44  1  0  0  0  0
 44 45  1  0  0  0  0
 21 46  1  0  0  0  0
M  END
> <Potency>
1.74571610372096

> <pIC50>
5.758026381828753

> <Outcome>
Active

> <is_active>
1

$$$$

  Mrv1921 08232120312D          

 36 39  0  0  0  0            999 V2000
    2.8810   -2.7050    0.0000 O   0  0  0  0  0  0  0  0  0  0  0  0
    2.0964   -2.9599    0.0000 C   0  0  0  0  0  0  0  0  0  0  0  0
    1.8414   -3.7445    0.0000 N   0  0  0  0  0  0  0  0  0  0  0  0
    2.3264   -4.4120    0.0000 H   0  0  0  0  0  0  0  0  0  0  0  0
    1.0164   -3.7445    0.0000 C   0  0  0  0  0  0  0  0  0  0  0  0
    0.5315   -4.4120    0.0000 C   0  0  0  0  0  0  0  0  0  0  0  0
    0.8671   -5.1657    0.0000 C   0  0  0  0  0  0  0  0  0  0  0  0
    1.6876   -5.2519    0.0000 H   0  0  0  0  0  0  0  0  0  0  0  0
    0.3822   -5.8331    0.0000 C   0  0  0  0  0  0  0  0  0  0  0  0
    0.7177   -6.5868    0.0000 H   0  0  0  0  0  0  0  0  0  0  0  0
   -0.4383   -5.7469    0.0000 C   0  0  0  0  0  0  0  0  0  0  0  0
   -0.9232   -6.4143    0.0000 Cl  0  0  0  0  0  0  0  0  0  0  0  0
   -0.7739   -4.9932    0.0000 C   0  0  0  0  0  0  0  0  0  0  0  0
   -1.5944   -4.9070    0.0000 Cl  0  0  0  0  0  0  0  0  0  0  0  0
   -0.2890   -4.3257    0.0000 C   0  0  0  0  0  0  0  0  0  0  0  0
   -0.9621   -3.8488    0.0000 H   0  0  0  0  0  0  0  0  0  0  0  0
    0.2016   -3.6155    0.0000 H   0  0  0  0  0  0  0  0  0  0  0  0
    0.7615   -2.9599    0.0000 C   0  0  0  0  0  0  0  0  0  0  0  0
   -0.0231   -2.7050    0.0000 O   0  0  0  0  0  0  0  0  0  0  0  0
    1.4289   -2.4750    0.0000 N   0  0  0  0  0  0  0  0  0  0  0  0
    1.4289   -1.6500    0.0000 C   0  0  0  0  0  0  0  0  0  0  0  0
    0.7145   -1.2375    0.0000 C   0  0  0  0  0  0  0  0  0  0  0  0
    0.0000   -1.6500    0.0000 H   0  0  0  0  0  0  0  0  0  0  0  0
    0.7145   -0.4125    0.0000 N   0  0  0  0  0  0  0  0  0  0  0  0
    1.4289    0.0000    0.0000 C   0  0  0  0  0  0  0  0  0  0  0  0
    1.4289    0.8250    0.0000 H   0  0  0  0  0  0  0  0  0  0  0  0
    2.1434   -0.4125    0.0000 C   0  0  0  0  0  0  0  0  0  0  0  0
    2.8579    0.0000    0.0000 C   0  0  0  0  0  0  0  0  0  0  0  0
    3.5724   -0.4125    0.0000 C   0  0  0  0  0  0  0  0  0  0  0  0
    3.5724   -1.2375    0.0000 C   0  0  0  0  0  0  0  0  0  0  0  0
    2.8579   -1.6500    0.0000 C   0  0  0  0  0  0  0  0  0  0  0  0
    2.8579   -2.4750    0.0000 H   0  0  0  0  0  0  0  0  0  0  0  0
    2.1434   -1.2375    0.0000 C   0  0  0  0  0  0  0  0  0  0  0  0
    4.2868   -1.6500    0.0000 H   0  0  0  0  0  0  0  0  0  0  0  0
    4.2868   -0.0000    0.0000 H   0  0  0  0  0  0  0  0  0  0  0  0
    2.8579    0.8250    0.0000 H   0  0  0  0  0  0  0  0  0  0  0  0
  1  2  2  0  0  0  0
  2  3  1  0  0  0  0
  3  4  1  0  0  0  0
  3  5  1  0  0  0  0
  5  6  1  0  0  0  0
  6  7  2  0  0  0  0
  7  8  1  0  0  0  0
  7  9  1  0  0  0  0
  9 10  1  0  0  0  0
  9 11  2  0  0  0  0
 11 12  1  0  0  0  0
 11 13  1  0  0  0  0
 13 14  1  0  0  0  0
 13 15  2  0  0  0  0
  6 15  1  0  0  0  0
 15 16  1  0  0  0  0
  5 17  1  0  0  0  0
  5 18  1  0  0  0  0
 18 19  2  0  0  0  0
 18 20  1  0  0  0  0
  2 20  1  0  0  0  0
 20 21  1  0  0  0  0
 21 22  2  0  0  0  0
 22 23  1  0  0  0  0
 22 24  1  0  0  0  0
 24 25  2  0  0  0  0
 25 26  1  0  0  0  0
 25 27  1  0  0  0  0
 27 28  2  0  0  0  0
 28 29  1  0  0  0  0
 29 30  2  0  0  0  0
 30 31  1  0  0  0  0
 31 32  1  0  0  0  0
 31 33  2  0  0  0  0
 21 33  1  0  0  0  0
 27 33  1  0  0  0  0
 30 34  1  0  0  0  0
 29 35  1  0  0  0  0
 28 36  1  0  0  0  0
M  END
> <Potency>
8.45946993289067

> <pIC50>
5.07265684883246

> <Outcome>
Active

> <is_active>
1

$$$$

  Mrv1921 08232120312D          

 43 46  0  0  0  0            999 V2000
    2.1434   -5.3625    0.0000 C   0  0  0  0  0  0  0  0  0  0  0  0
    1.4289   -4.9500    0.0000 N   0  0  0  0  0  0  0  0  0  0  0  0
    0.7145   -5.3625    0.0000 C   0  0  0  0  0  0  0  0  0  0  0  0
    0.3442   -6.0997    0.0000 H   0  0  0  0  0  0  0  0  0  0  0  0
    1.0847   -6.0997    0.0000 H   0  0  0  0  0  0  0  0  0  0  0  0
    0.0000   -4.9500    0.0000 C   0  0  0  0  0  0  0  0  0  0  0  0
   -0.7145   -5.3625    0.0000 C   0  0  0  0  0  0  0  0  0  0  0  0
   -1.4289   -4.9500    0.0000 C   0  0  0  0  0  0  0  0  0  0  0  0
   -1.4289   -4.1250    0.0000 C   0  0  0  0  0  0  0  0  0  0  0  0
   -2.1434   -3.7125    0.0000 Cl  0  0  0  0  0  0  0  0  0  0  0  0
   -0.7145   -3.7125    0.0000 C   0  0  0  0  0  0  0  0  0  0  0  0
   -0.7145   -2.8875    0.0000 H   0  0  0  0  0  0  0  0  0  0  0  0
    0.0000   -4.1250    0.0000 C   0  0  0  0  0  0  0  0  0  0  0  0
    0.7145   -3.7125    0.0000 C   0  0  0  0  0  0  0  0  0  0  0  0
    0.7145   -2.8875    0.0000 C   0  0  0  0  0  0  0  0  0  0  0  0
    0.0000   -2.4750    0.0000 O   0  0  0  0  0  0  0  0  0  0  0  0
    1.4289   -2.4750    0.0000 N   0  0  0  0  0  0  0  0  0  0  0  0
    1.4289   -1.6500    0.0000 C   0  0  0  0  0  0  0  0  0  0  0  0
    0.7145   -1.2375    0.0000 C   0  0  0  0  0  0  0  0  0  0  0  0
    0.0000   -1.6500    0.0000 H   0  0  0  0  0  0  0  0  0  0  0  0
    0.7145   -0.4125    0.0000 N   0  0  0  0  0  0  0  0  0  0  0  0
    1.4289    0.0000    0.0000 C   0  0  0  0  0  0  0  0  0  0  0  0
    1.4289    0.8250    0.0000 H   0  0  0  0  0  0  0  0  0  0  0  0
    2.1434   -0.4125    0.0000 C   0  0  0  0  0  0  0  0  0  0  0  0
    2.8579    0.0000    0.0000 C   0  0  0  0  0  0  0  0  0  0  0  0
    3.5724   -0.4125    0.0000 C   0  0  0  0  0  0  0  0  0  0  0  0
    3.5724   -1.2375    0.0000 C   0  0  0  0  0  0  0  0  0  0  0  0
    2.8579   -1.6500    0.0000 C   0  0  0  0  0  0  0  0  0  0  0  0
    2.8579   -2.4750    0.0000 H   0  0  0  0  0  0  0  0  0  0  0  0
    2.1434   -1.2375    0.0000 C   0  0  0  0  0  0  0  0  0  0  0  0
    4.2868   -1.6500    0.0000 H   0  0  0  0  0  0  0  0  0  0  0  0
    4.2868   -0.0000    0.0000 H   0  0  0  0  0  0  0  0  0  0  0  0
    2.8579    0.8250    0.0000 H   0  0  0  0  0  0  0  0  0  0  0  0
    2.2539   -2.4750    0.0000 H   0  0  0  0  0  0  0  0  0  0  0  0
    1.4289   -3.3000    0.0000 H   0  0  0  0  0  0  0  0  0  0  0  0
    1.4289   -4.1250    0.0000 C   0  0  0  0  0  0  0  0  0  0  0  0
    2.2042   -4.4072    0.0000 H   0  0  0  0  0  0  0  0  0  0  0  0
    2.2042   -3.8428    0.0000 H   0  0  0  0  0  0  0  0  0  0  0  0
   -2.1434   -5.3625    0.0000 H   0  0  0  0  0  0  0  0  0  0  0  0
   -0.7145   -6.1875    0.0000 H   0  0  0  0  0  0  0  0  0  0  0  0
    1.7309   -6.0770    0.0000 H   0  0  0  0  0  0  0  0  0  0  0  0
    2.8579   -5.7750    0.0000 H   0  0  0  0  0  0  0  0  0  0  0  0
    2.5559   -4.6480    0.0000 H   0  0  0  0  0  0  0  0  0  0  0  0
  1  2  1  0  0  0  0
  2  3  1  0  0  0  0
  3  4  1  0  0  0  0
  3  5  1  0  0  0  0
  3  6  1  0  0  0  0
  6  7  2  0  0  0  0
  7  8  1  0  0  0  0
  8  9  2  0  0  0  0
  9 10  1  0  0  0  0
  9 11  1  0  0  0  0
 11 12  1  0  0  0  0
 11 13  2  0  0  0  0
  6 13  1  0  0  0  0
 13 14  1  0  0  0  0
 14 15  1  0  0  0  0
 15 16  2  0  0  0  0
 15 17  1  0  0  0  0
 17 18  1  0  0  0  0
 18 19  2  0  0  0  0
 19 20  1  0  0  0  0
 19 21  1  0  0  0  0
 21 22  2  0  0  0  0
 22 23  1  0  0  0  0
 22 24  1  0  0  0  0
 24 25  2  0  0  0  0
 25 26  1  0  0  0  0
 26 27  2  0  0  0  0
 27 28  1  0  0  0  0
 28 29  1  0  0  0  0
 28 30  2  0  0  0  0
 18 30  1  0  0  0  0
 24 30  1  0  0  0  0
 27 31  1  0  0  0  0
 26 32  1  0  0  0  0
 25 33  1  0  0  0  0
 17 34  1  0  0  0  0
 14 35  1  0  0  0  0
 14 36  1  0  0  0  0
  2 36  1  0  0  0  0
 36 37  1  0  0  0  0
 36 38  1  0  0  0  0
  8 39  1  0  0  0  0
  7 40  1  0  0  0  0
  1 41  1  0  0  0  0
  1 42  1  0  0  0  0
  1 43  1  0  0  0  0
M  END
> <Potency>
2.01088818281895

> <pIC50>
5.696612078053104

> <Outcome>
Active

> <is_active>
1

$$$$

  Mrv1921 08232120312D          

 42 46  0  0  0  0            999 V2000
    5.1598    0.2069    0.0000 O   0  0  0  0  0  0  0  0  0  0  0  0
    4.3752   -0.0481    0.0000 C   0  0  0  0  0  0  0  0  0  0  0  0
    4.1202   -0.8327    0.0000 C   0  0  0  0  0  0  0  0  0  0  0  0
    4.6811   -1.4377    0.0000 H   0  0  0  0  0  0  0  0  0  0  0  0
    4.9434   -0.8878    0.0000 H   0  0  0  0  0  0  0  0  0  0  0  0
    3.2952   -0.8327    0.0000 C   0  0  0  0  0  0  0  0  0  0  0  0
    3.6308   -1.5864    0.0000 C   0  0  0  0  0  0  0  0  0  0  0  0
    4.1060   -2.2608    0.0000 H   0  0  0  0  0  0  0  0  0  0  0  0
    4.4307   -1.7883    0.0000 H   0  0  0  0  0  0  0  0  0  0  0  0
    3.1459   -2.2538    0.0000 C   0  0  0  0  0  0  0  0  0  0  0  0
    2.8126   -3.0085    0.0000 H   0  0  0  0  0  0  0  0  0  0  0  0
    3.3927   -3.0410    0.0000 H   0  0  0  0  0  0  0  0  0  0  0  0
    2.3254   -2.1676    0.0000 O   0  0  0  0  0  0  0  0  0  0  0  0
    1.9898   -1.4139    0.0000 C   0  0  0  0  0  0  0  0  0  0  0  0
    1.1694   -1.3277    0.0000 C   0  0  0  0  0  0  0  0  0  0  0  0
    0.8338   -0.5740    0.0000 C   0  0  0  0  0  0  0  0  0  0  0  0
    1.3187    0.0935    0.0000 C   0  0  0  0  0  0  0  0  0  0  0  0
    0.9832    0.8471    0.0000 Cl  0  0  0  0  0  0  0  0  0  0  0  0
    2.1392    0.0072    0.0000 C   0  0  0  0  0  0  0  0  0  0  0  0
    1.6543   -0.6602    0.0000 H   0  0  0  0  0  0  0  0  0  0  0  0
    2.4748   -0.7465    0.0000 C   0  0  0  0  0  0  0  0  0  0  0  0
    0.0133   -0.4877    0.0000 H   0  0  0  0  0  0  0  0  0  0  0  0
    0.6844   -1.9951    0.0000 H   0  0  0  0  0  0  0  0  0  0  0  0
    3.0403   -0.0481    0.0000 C   0  0  0  0  0  0  0  0  0  0  0  0
    2.3729    0.4369    0.0000 O   0  0  0  0  0  0  0  0  0  0  0  0
    3.7077    0.4369    0.0000 N   0  0  0  0  0  0  0  0  0  0  0  0
    3.7077    1.2619    0.0000 C   0  0  0  0  0  0  0  0  0  0  0  0
    2.9933    1.6744    0.0000 C   0  0  0  0  0  0  0  0  0  0  0  0
    2.2788    1.2619    0.0000 H   0  0  0  0  0  0  0  0  0  0  0  0
    2.9933    2.4994    0.0000 N   0  0  0  0  0  0  0  0  0  0  0  0
    3.7077    2.9119    0.0000 C   0  0  0  0  0  0  0  0  0  0  0  0
    3.7077    3.7369    0.0000 H   0  0  0  0  0  0  0  0  0  0  0  0
    4.4222    2.4994    0.0000 C   0  0  0  0  0  0  0  0  0  0  0  0
    5.1367    2.9119    0.0000 C   0  0  0  0  0  0  0  0  0  0  0  0
    5.8511    2.4994    0.0000 C   0  0  0  0  0  0  0  0  0  0  0  0
    5.8511    1.6744    0.0000 C   0  0  0  0  0  0  0  0  0  0  0  0
    5.1367    1.2619    0.0000 C   0  0  0  0  0  0  0  0  0  0  0  0
    5.1367    0.4369    0.0000 H   0  0  0  0  0  0  0  0  0  0  0  0
    4.4222    1.6744    0.0000 C   0  0  0  0  0  0  0  0  0  0  0  0
    6.5656    1.2619    0.0000 H   0  0  0  0  0  0  0  0  0  0  0  0
    6.5656    2.9119    0.0000 H   0  0  0  0  0  0  0  0  0  0  0  0
    5.1367    3.7369    0.0000 H   0  0  0  0  0  0  0  0  0  0  0  0
  1  2  2  0  0  0  0
  2  3  1  0  0  0  0
  3  4  1  0  0  0  0
  3  5  1  0  0  0  0
  3  6  1  0  0  0  0
  6  7  1  0  0  0  0
  7  8  1  0  0  0  0
  7  9  1  0  0  0  0
  7 10  1  0  0  0  0
 10 11  1  0  0  0  0
 10 12  1  0  0  0  0
 10 13  1  0  0  0  0
 13 14  1  0  0  0  0
 14 15  2  0  0  0  0
 15 16  1  0  0  0  0
 16 17  2  0  0  0  0
 17 18  1  0  0  0  0
 17 19  1  0  0  0  0
 19 20  1  0  0  0  0
 19 21  2  0  0  0  0
  6 21  1  0  0  0  0
 14 21  1  0  0  0  0
 16 22  1  0  0  0  0
 15 23  1  0  0  0  0
  6 24  1  0  0  0  0
 24 25  2  0  0  0  0
 24 26  1  0  0  0  0
  2 26  1  0  0  0  0
 26 27  1  0  0  0  0
 27 28  2  0  0  0  0
 28 29  1  0  0  0  0
 28 30  1  0  0  0  0
 30 31  2  0  0  0  0
 31 32  1  0  0  0  0
 31 33  1  0  0  0  0
 33 34  2  0  0  0  0
 34 35  1  0  0  0  0
 35 36  2  0  0  0  0
 36 37  1  0  0  0  0
 37 38  1  0  0  0  0
 37 39  2  0  0  0  0
 27 39  1  0  0  0  0
 33 39  1  0  0  0  0
 36 40  1  0  0  0  0
 35 41  1  0  0  0  0
 34 42  1  0  0  0  0
M  END
> <Potency>
0.485865063914067

> <pIC50>
6.313484327721964

> <Outcome>
Active

> <is_active>
1

$$$$

  Mrv1921 08232120312D          

 52 56  0  0  0  0            999 V2000
    4.4509   -5.0439    0.0000 O   0  0  0  0  0  0  0  0  0  0  0  0
    4.1960   -5.8286    0.0000 C   0  0  0  0  0  0  0  0  0  0  0  0
    3.3890   -6.0001    0.0000 N   0  0  0  0  0  0  0  0  0  0  0  0
    2.8370   -5.3870    0.0000 C   0  0  0  0  0  0  0  0  0  0  0  0
    2.0300   -5.5585    0.0000 C   0  0  0  0  0  0  0  0  0  0  0  0
    1.7751   -6.3432    0.0000 H   0  0  0  0  0  0  0  0  0  0  0  0
    1.4780   -4.9454    0.0000 C   0  0  0  0  0  0  0  0  0  0  0  0
    0.6710   -5.1170    0.0000 H   0  0  0  0  0  0  0  0  0  0  0  0
    1.7329   -4.1608    0.0000 C   0  0  0  0  0  0  0  0  0  0  0  0
    1.1809   -3.5477    0.0000 N   0  0  0  0  0  0  0  0  0  0  0  0
    0.3739   -3.7192    0.0000 C   0  0  0  0  0  0  0  0  0  0  0  0
   -0.1781   -3.1062    0.0000 C   0  0  0  0  0  0  0  0  0  0  0  0
   -0.9986   -3.1924    0.0000 C   0  0  0  0  0  0  0  0  0  0  0  0
   -1.4111   -3.9069    0.0000 H   0  0  0  0  0  0  0  0  0  0  0  0
   -1.3342   -2.4387    0.0000 C   0  0  0  0  0  0  0  0  0  0  0  0
   -2.1411   -2.2672    0.0000 H   0  0  0  0  0  0  0  0  0  0  0  0
   -0.7211   -1.8867    0.0000 S   0  0  0  0  0  0  0  0  0  0  0  0
   -0.0066   -2.2992    0.0000 C   0  0  0  0  0  0  0  0  0  0  0  0
    0.1401   -1.4873    0.0000 H   0  0  0  0  0  0  0  0  0  0  0  0
   -0.2061   -4.3060    0.0000 H   0  0  0  0  0  0  0  0  0  0  0  0
    0.4982   -4.5348    0.0000 H   0  0  0  0  0  0  0  0  0  0  0  0
    1.4358   -2.7631    0.0000 C   0  0  0  0  0  0  0  0  0  0  0  0
    2.2428   -2.5916    0.0000 O   0  0  0  0  0  0  0  0  0  0  0  0
    0.8838   -2.1500    0.0000 C   0  0  0  0  0  0  0  0  0  0  0  0
    1.1387   -1.3654    0.0000 N   0  0  0  0  0  0  0  0  0  0  0  0
    0.6538   -0.6979    0.0000 N   0  0  0  0  0  0  0  0  0  0  0  0
    1.1387   -0.0305    0.0000 N   0  0  0  0  0  0  0  0  0  0  0  0
    1.9233   -0.2854    0.0000 C   0  0  0  0  0  0  0  0  0  0  0  0
    2.6378    0.1271    0.0000 C   0  0  0  0  0  0  0  0  0  0  0  0
    3.3523   -0.2854    0.0000 C   0  0  0  0  0  0  0  0  0  0  0  0
    3.3523   -1.1104    0.0000 C   0  0  0  0  0  0  0  0  0  0  0  0
    2.6378   -1.5229    0.0000 C   0  0  0  0  0  0  0  0  0  0  0  0
    2.6378   -2.3479    0.0000 H   0  0  0  0  0  0  0  0  0  0  0  0
    1.9233   -1.1104    0.0000 C   0  0  0  0  0  0  0  0  0  0  0  0
    4.0668   -1.5229    0.0000 H   0  0  0  0  0  0  0  0  0  0  0  0
    4.0668    0.1271    0.0000 H   0  0  0  0  0  0  0  0  0  0  0  0
    2.6378    0.9521    0.0000 H   0  0  0  0  0  0  0  0  0  0  0  0
    0.6119   -2.9289    0.0000 H   0  0  0  0  0  0  0  0  0  0  0  0
    1.6908   -1.9785    0.0000 H   0  0  0  0  0  0  0  0  0  0  0  0
    2.5399   -3.9893    0.0000 C   0  0  0  0  0  0  0  0  0  0  0  0
    2.7948   -3.2047    0.0000 H   0  0  0  0  0  0  0  0  0  0  0  0
    3.0919   -4.6024    0.0000 C   0  0  0  0  0  0  0  0  0  0  0  0
    3.8989   -4.4309    0.0000 H   0  0  0  0  0  0  0  0  0  0  0  0
    3.1341   -6.7847    0.0000 H   0  0  0  0  0  0  0  0  0  0  0  0
    4.7480   -6.4417    0.0000 C   0  0  0  0  0  0  0  0  0  0  0  0
    5.5326   -6.6966    0.0000 C   0  0  0  0  0  0  0  0  0  0  0  0
    6.3011   -6.9967    0.0000 H   0  0  0  0  0  0  0  0  0  0  0  0
    6.1126   -6.1099    0.0000 H   0  0  0  0  0  0  0  0  0  0  0  0
    4.9195   -7.2486    0.0000 C   0  0  0  0  0  0  0  0  0  0  0  0
    4.2754   -7.7641    0.0000 H   0  0  0  0  0  0  0  0  0  0  0  0
    5.1377   -8.0443    0.0000 H   0  0  0  0  0  0  0  0  0  0  0  0
    4.0129   -6.8162    0.0000 H   0  0  0  0  0  0  0  0  0  0  0  0
  1  2  2  0  0  0  0
  2  3  1  0  0  0  0
  3  4  1  0  0  0  0
  4  5  2  0  0  0  0
  5  6  1  0  0  0  0
  5  7  1  0  0  0  0
  7  8  1  0  0  0  0
  7  9  2  0  0  0  0
  9 10  1  0  0  0  0
 10 11  1  0  0  0  0
 11 12  1  0  0  0  0
 12 13  1  0  0  0  0
 13 14  1  0  0  0  0
 13 15  2  0  0  0  0
 15 16  1  0  0  0  0
 15 17  1  0  0  0  0
 17 18  1  0  0  0  0
 12 18  2  0  0  0  0
 18 19  1  0  0  0  0
 11 20  1  0  0  0  0
 11 21  1  0  0  0  0
 10 22  1  0  0  0  0
 22 23  2  0  0  0  0
 22 24  1  0  0  0  0
 24 25  1  0  0  0  0
 25 26  1  0  0  0  0
 26 27  2  0  0  0  0
 27 28  1  0  0  0  0
 28 29  2  0  0  0  0
 29 30  1  0  0  0  0
 30 31  2  0  0  0  0
 31 32  1  0  0  0  0
 32 33  1  0  0  0  0
 32 34  2  0  0  0  0
 25 34  1  0  0  0  0
 28 34  1  0  0  0  0
 31 35  1  0  0  0  0
 30 36  1  0  0  0  0
 29 37  1  0  0  0  0
 24 38  1  0  0  0  0
 24 39  1  0  0  0  0
  9 40  1  0  0  0  0
 40 41  1  0  0  0  0
 40 42  2  0  0  0  0
  4 42  1  0  0  0  0
 42 43  1  0  0  0  0
  3 44  1  0  0  0  0
  2 45  1  0  0  0  0
 45 46  1  0  0  0  0
 46 47  1  0  0  0  0
 46 48  1  0  0  0  0
 46 49  1  0  0  0  0
 45 49  1  0  0  0  0
 49 50  1  0  0  0  0
 49 51  1  0  0  0  0
 45 52  1  0  0  0  0
M  END
> <Potency>
3.99495807547072

> <pIC50>
5.398487773968828

> <Outcome>
Active

> <is_active>
1

$$$$

  Mrv1921 08232120312D          

 44 46  0  0  0  0            999 V2000
    0.0000   -2.4750    0.0000 C   0  0  0  0  0  0  0  0  0  0  0  0
    0.0000   -1.6500    0.0000 O   0  0  0  0  0  0  0  0  0  0  0  0
    0.7145   -1.2375    0.0000 C   0  0  0  0  0  0  0  0  0  0  0  0
    0.7145   -0.4125    0.0000 C   0  0  0  0  0  0  0  0  0  0  0  0
    0.0000    0.0000    0.0000 H   0  0  0  0  0  0  0  0  0  0  0  0
    1.4289    0.0000    0.0000 C   0  0  0  0  0  0  0  0  0  0  0  0
    1.4289    0.8250    0.0000 C   0  0  0  0  0  0  0  0  0  0  0  0
    2.1434    1.2375    0.0000 N   0  0  0  0  0  0  0  0  0  0  0  0
    2.1434    2.0625    0.0000 C   0  0  0  0  0  0  0  0  0  0  0  0
    1.6901    2.7518    0.0000 H   0  0  0  0  0  0  0  0  0  0  0  0
    1.3198    2.1105    0.0000 H   0  0  0  0  0  0  0  0  0  0  0  0
    2.8579    2.4750    0.0000 C   0  0  0  0  0  0  0  0  0  0  0  0
    3.2281    3.2122    0.0000 H   0  0  0  0  0  0  0  0  0  0  0  0
    2.4876    3.2122    0.0000 H   0  0  0  0  0  0  0  0  0  0  0  0
    3.5724    2.0625    0.0000 N   0  0  0  0  0  0  0  0  0  0  0  0
    4.2868    2.4750    0.0000 C   0  0  0  0  0  0  0  0  0  0  0  0
    4.2868    3.3000    0.0000 O   0  0  0  0  0  0  0  0  0  0  0  0
    5.0013    2.0625    0.0000 C   0  0  0  0  0  0  0  0  0  0  0  0
    5.7158    2.4750    0.0000 Cl  0  0  0  0  0  0  0  0  0  0  0  0
    4.6310    1.3253    0.0000 H   0  0  0  0  0  0  0  0  0  0  0  0
    5.3716    1.3253    0.0000 H   0  0  0  0  0  0  0  0  0  0  0  0
    3.5724    1.2375    0.0000 C   0  0  0  0  0  0  0  0  0  0  0  0
    4.0257    0.5482    0.0000 H   0  0  0  0  0  0  0  0  0  0  0  0
    4.3960    1.1895    0.0000 H   0  0  0  0  0  0  0  0  0  0  0  0
    2.8579    0.8250    0.0000 C   0  0  0  0  0  0  0  0  0  0  0  0
    2.1434    0.4125    0.0000 H   0  0  0  0  0  0  0  0  0  0  0  0
    2.8579    1.6500    0.0000 H   0  0  0  0  0  0  0  0  0  0  0  0
    0.9756    1.5143    0.0000 H   0  0  0  0  0  0  0  0  0  0  0  0
    0.6053    0.8730    0.0000 H   0  0  0  0  0  0  0  0  0  0  0  0
    2.1434   -0.4125    0.0000 C   0  0  0  0  0  0  0  0  0  0  0  0
    2.8579    0.0000    0.0000 C   0  0  0  0  0  0  0  0  0  0  0  0
    3.5724   -0.4125    0.0000 C   0  0  0  0  0  0  0  0  0  0  0  0
    3.5724   -1.2375    0.0000 C   0  0  0  0  0  0  0  0  0  0  0  0
    2.8579   -1.6500    0.0000 C   0  0  0  0  0  0  0  0  0  0  0  0
    2.8579   -2.4750    0.0000 H   0  0  0  0  0  0  0  0  0  0  0  0
    2.1434   -1.2375    0.0000 C   0  0  0  0  0  0  0  0  0  0  0  0
    1.4289   -1.6500    0.0000 C   0  0  0  0  0  0  0  0  0  0  0  0
    1.4289   -2.4750    0.0000 H   0  0  0  0  0  0  0  0  0  0  0  0
    4.2868   -1.6500    0.0000 H   0  0  0  0  0  0  0  0  0  0  0  0
    4.3974   -0.4125    0.0000 H   0  0  0  0  0  0  0  0  0  0  0  0
    3.5724    0.4125    0.0000 H   0  0  0  0  0  0  0  0  0  0  0  0
   -0.8250   -2.4750    0.0000 H   0  0  0  0  0  0  0  0  0  0  0  0
    0.0000   -3.3000    0.0000 H   0  0  0  0  0  0  0  0  0  0  0  0
    0.8250   -2.4750    0.0000 H   0  0  0  0  0  0  0  0  0  0  0  0
  1  2  1  0  0  0  0
  2  3  1  0  0  0  0
  3  4  2  0  0  0  0
  4  5  1  0  0  0  0
  4  6  1  0  0  0  0
  6  7  1  0  0  0  0
  7  8  1  0  0  0  0
  8  9  1  0  0  0  0
  9 10  1  0  0  0  0
  9 11  1  0  0  0  0
  9 12  1  0  0  0  0
 12 13  1  0  0  0  0
 12 14  1  0  0  0  0
 12 15  1  0  0  0  0
 15 16  1  0  0  0  0
 16 17  2  0  0  0  0
 16 18  1  0  0  0  0
 18 19  1  0  0  0  0
 18 20  1  0  0  0  0
 18 21  1  0  0  0  0
 15 22  1  0  0  0  0
 22 23  1  0  0  0  0
 22 24  1  0  0  0  0
 22 25  1  0  0  0  0
  8 25  1  0  0  0  0
 25 26  1  0  0  0  0
 25 27  1  0  0  0  0
  7 28  1  0  0  0  0
  7 29  1  0  0  0  0
  6 30  2  0  0  0  0
 30 31  1  0  0  0  0
 31 32  2  0  0  0  0
 32 33  1  0  0  0  0
 33 34  2  0  0  0  0
 34 35  1  0  0  0  0
 34 36  1  0  0  0  0
 30 36  1  0  0  0  0
 36 37  2  0  0  0  0
  3 37  1  0  0  0  0
 37 38  1  0  0  0  0
 33 39  1  0  0  0  0
 32 40  1  0  0  0  0
 31 41  1  0  0  0  0
  1 42  1  0  0  0  0
  1 43  1  0  0  0  0
  1 44  1  0  0  0  0
M  END
> <Potency>
2.74516472068115

> <pIC50>
5.561431591054845

> <Outcome>
Active

> <is_active>
1

$$$$

  Mrv1921 08232120312D          

 35 37  0  0  0  0            999 V2000
   -1.2654    0.5418    0.0000 O   0  0  0  0  0  0  0  0  0  0  0  0
   -0.5510    0.9543    0.0000 C   0  0  0  0  0  0  0  0  0  0  0  0
   -0.5510    1.7793    0.0000 C   0  0  0  0  0  0  0  0  0  0  0  0
   -1.2654    2.1918    0.0000 Cl  0  0  0  0  0  0  0  0  0  0  0  0
    0.2727    1.8272    0.0000 H   0  0  0  0  0  0  0  0  0  0  0  0
   -0.0976    2.4686    0.0000 H   0  0  0  0  0  0  0  0  0  0  0  0
    0.1635    0.5418    0.0000 N   0  0  0  0  0  0  0  0  0  0  0  0
    0.1635   -0.2832    0.0000 C   0  0  0  0  0  0  0  0  0  0  0  0
   -0.6601   -0.3312    0.0000 H   0  0  0  0  0  0  0  0  0  0  0  0
   -0.2898   -0.9725    0.0000 H   0  0  0  0  0  0  0  0  0  0  0  0
    0.8780   -0.6957    0.0000 C   0  0  0  0  0  0  0  0  0  0  0  0
    0.6717    0.1293    0.0000 C   0  0  0  0  0  0  0  0  0  0  0  0
    1.4175   -0.2236    0.0000 H   0  0  0  0  0  0  0  0  0  0  0  0
    1.4175    0.4821    0.0000 H   0  0  0  0  0  0  0  0  0  0  0  0
    0.8780    0.9543    0.0000 C   0  0  0  0  0  0  0  0  0  0  0  0
    1.5925    0.5418    0.0000 C   0  0  0  0  0  0  0  0  0  0  0  0
    1.5925   -0.2832    0.0000 N   0  0  0  0  0  0  0  0  0  0  0  0
    2.3069   -0.6957    0.0000 C   0  0  0  0  0  0  0  0  0  0  0  0
    2.3069   -1.5207    0.0000 C   0  0  0  0  0  0  0  0  0  0  0  0
    3.0214   -1.9332    0.0000 C   0  0  0  0  0  0  0  0  0  0  0  0
    3.7359   -1.5207    0.0000 H   0  0  0  0  0  0  0  0  0  0  0  0
    3.0214   -2.7582    0.0000 C   0  0  0  0  0  0  0  0  0  0  0  0
    3.7359   -3.1707    0.0000 H   0  0  0  0  0  0  0  0  0  0  0  0
    2.3069   -3.1707    0.0000 C   0  0  0  0  0  0  0  0  0  0  0  0
    2.3069   -3.9957    0.0000 H   0  0  0  0  0  0  0  0  0  0  0  0
    1.5925   -2.7582    0.0000 C   0  0  0  0  0  0  0  0  0  0  0  0
    0.8780   -3.1707    0.0000 Cl  0  0  0  0  0  0  0  0  0  0  0  0
    1.5925   -1.9332    0.0000 C   0  0  0  0  0  0  0  0  0  0  0  0
    1.5925   -1.1082    0.0000 H   0  0  0  0  0  0  0  0  0  0  0  0
    3.1305   -0.6478    0.0000 H   0  0  0  0  0  0  0  0  0  0  0  0
    2.7603   -0.0064    0.0000 H   0  0  0  0  0  0  0  0  0  0  0  0
    2.4161    0.5897    0.0000 H   0  0  0  0  0  0  0  0  0  0  0  0
    2.0458    1.2311    0.0000 H   0  0  0  0  0  0  0  0  0  0  0  0
    0.8780    1.7793    0.0000 H   0  0  0  0  0  0  0  0  0  0  0  0
    0.8780   -1.5207    0.0000 H   0  0  0  0  0  0  0  0  0  0  0  0
  1  2  2  0  0  0  0
  2  3  1  0  0  0  0
  3  4  1  0  0  0  0
  3  5  1  0  0  0  0
  3  6  1  0  0  0  0
  2  7  1  0  0  0  0
  7  8  1  0  0  0  0
  8  9  1  0  0  0  0
  8 10  1  0  0  0  0
  8 11  1  0  0  0  0
 11 12  1  0  0  0  0
 12 13  1  0  0  0  0
 12 14  1  0  0  0  0
 12 15  1  0  0  0  0
  7 15  1  0  0  0  0
 15 16  1  0  0  0  0
 16 17  1  0  0  0  0
 11 17  1  0  0  0  0
 17 18  1  0  0  0  0
 18 19  1  0  0  0  0
 19 20  2  0  0  0  0
 20 21  1  0  0  0  0
 20 22  1  0  0  0  0
 22 23  1  0  0  0  0
 22 24  2  0  0  0  0
 24 25  1  0  0  0  0
 24 26  1  0  0  0  0
 26 27  1  0  0  0  0
 26 28  2  0  0  0  0
 19 28  1  0  0  0  0
 28 29  1  0  0  0  0
 18 30  1  0  0  0  0
 18 31  1  0  0  0  0
 16 32  1  0  0  0  0
 16 33  1  0  0  0  0
 15 34  1  0  0  0  0
 11 35  1  0  0  0  0
M  END
> <Potency>
2.1668874893559

> <pIC50>
5.664163637835885

> <Outcome>
Active

> <is_active>
1

$$$$

  Mrv1921 08232120312D          

 52 56  0  0  0  0            999 V2000
    0.7145   -2.8875    0.0000 O   0  0  0  0  0  0  0  0  0  0  0  0
    1.4289   -2.4750    0.0000 C   0  0  0  0  0  0  0  0  0  0  0  0
    2.1434   -2.8875    0.0000 N   0  0  0  0  0  0  0  0  0  0  0  0
    2.1434   -3.7125    0.0000 C   0  0  0  0  0  0  0  0  0  0  0  0
    2.8579   -4.1250    0.0000 C   0  0  0  0  0  0  0  0  0  0  0  0
    3.5724   -3.7125    0.0000 H   0  0  0  0  0  0  0  0  0  0  0  0
    2.8579   -4.9500    0.0000 N   0  0  0  0  0  0  0  0  0  0  0  0
    2.1434   -5.3625    0.0000 C   0  0  0  0  0  0  0  0  0  0  0  0
    2.1434   -6.1875    0.0000 H   0  0  0  0  0  0  0  0  0  0  0  0
    1.4289   -4.9500    0.0000 C   0  0  0  0  0  0  0  0  0  0  0  0
    0.7145   -5.3625    0.0000 C   0  0  0  0  0  0  0  0  0  0  0  0
    0.0000   -4.9500    0.0000 C   0  0  0  0  0  0  0  0  0  0  0  0
    0.0000   -4.1250    0.0000 C   0  0  0  0  0  0  0  0  0  0  0  0
    0.7145   -3.7125    0.0000 C   0  0  0  0  0  0  0  0  0  0  0  0
    1.4289   -3.3000    0.0000 H   0  0  0  0  0  0  0  0  0  0  0  0
    1.4289   -4.1250    0.0000 C   0  0  0  0  0  0  0  0  0  0  0  0
   -0.7145   -3.7125    0.0000 H   0  0  0  0  0  0  0  0  0  0  0  0
   -0.7145   -5.3625    0.0000 H   0  0  0  0  0  0  0  0  0  0  0  0
    0.7145   -6.1875    0.0000 H   0  0  0  0  0  0  0  0  0  0  0  0
    2.8579   -2.4750    0.0000 H   0  0  0  0  0  0  0  0  0  0  0  0
    1.4289   -1.6500    0.0000 C   0  0  0  0  0  0  0  0  0  0  0  0
    0.7145   -1.2375    0.0000 C   0  0  0  0  0  0  0  0  0  0  0  0
   -0.1091   -1.2855    0.0000 H   0  0  0  0  0  0  0  0  0  0  0  0
    0.2611   -1.9268    0.0000 H   0  0  0  0  0  0  0  0  0  0  0  0
    0.7145   -0.4125    0.0000 N   0  0  0  0  0  0  0  0  0  0  0  0
    0.0000    0.0000    0.0000 S   0  0  0  0  0  0  0  0  0  0  0  0
    0.4125    0.7145    0.0000 O   0  0  0  0  0  0  0  0  0  0  0  0
   -0.4125   -0.7145    0.0000 O   0  0  0  0  0  0  0  0  0  0  0  0
   -0.7145    0.4125    0.0000 N   0  0  0  0  0  0  0  0  0  0  0  0
   -1.5114    0.1990    0.0000 C   0  0  0  0  0  0  0  0  0  0  0  0
   -2.2258   -0.2135    0.0000 H   0  0  0  0  0  0  0  0  0  0  0  0
   -1.5114   -0.6260    0.0000 H   0  0  0  0  0  0  0  0  0  0  0  0
   -1.7249    0.9959    0.0000 C   0  0  0  0  0  0  0  0  0  0  0  0
   -2.1374    1.7103    0.0000 H   0  0  0  0  0  0  0  0  0  0  0  0
   -2.5499    0.9959    0.0000 H   0  0  0  0  0  0  0  0  0  0  0  0
   -0.9280    1.2094    0.0000 C   0  0  0  0  0  0  0  0  0  0  0  0
   -0.2135    1.6219    0.0000 H   0  0  0  0  0  0  0  0  0  0  0  0
   -0.9280    2.0344    0.0000 H   0  0  0  0  0  0  0  0  0  0  0  0
    1.4289    0.0000    0.0000 C   0  0  0  0  0  0  0  0  0  0  0  0
    1.7992    0.7372    0.0000 H   0  0  0  0  0  0  0  0  0  0  0  0
    1.0587    0.7372    0.0000 H   0  0  0  0  0  0  0  0  0  0  0  0
    2.1434   -0.4125    0.0000 C   0  0  0  0  0  0  0  0  0  0  0  0
    2.8579    0.0000    0.0000 C   0  0  0  0  0  0  0  0  0  0  0  0
    3.5724   -0.4125    0.0000 C   0  0  0  0  0  0  0  0  0  0  0  0
    3.5724   -1.2375    0.0000 C   0  0  0  0  0  0  0  0  0  0  0  0
    4.2868   -1.6500    0.0000 Cl  0  0  0  0  0  0  0  0  0  0  0  0
    2.8579   -1.6500    0.0000 C   0  0  0  0  0  0  0  0  0  0  0  0
    2.8579   -0.8250    0.0000 H   0  0  0  0  0  0  0  0  0  0  0  0
    2.1434   -1.2375    0.0000 C   0  0  0  0  0  0  0  0  0  0  0  0
    4.2868   -0.0000    0.0000 H   0  0  0  0  0  0  0  0  0  0  0  0
    2.8579    0.8250    0.0000 H   0  0  0  0  0  0  0  0  0  0  0  0
    2.1434   -2.0625    0.0000 H   0  0  0  0  0  0  0  0  0  0  0  0
  1  2  2  0  0  0  0
  2  3  1  0  0  0  0
  3  4  1  0  0  0  0
  4  5  2  0  0  0  0
  5  6  1  0  0  0  0
  5  7  1  0  0  0  0
  7  8  2  0  0  0  0
  8  9  1  0  0  0  0
  8 10  1  0  0  0  0
 10 11  2  0  0  0  0
 11 12  1  0  0  0  0
 12 13  2  0  0  0  0
 13 14  1  0  0  0  0
 14 15  1  0  0  0  0
 14 16  2  0  0  0  0
  4 16  1  0  0  0  0
 10 16  1  0  0  0  0
 13 17  1  0  0  0  0
 12 18  1  0  0  0  0
 11 19  1  0  0  0  0
  3 20  1  0  0  0  0
  2 21  1  0  0  0  0
 21 22  1  0  0  0  0
 22 23  1  0  0  0  0
 22 24  1  0  0  0  0
 22 25  1  0  0  0  0
 25 26  1  0  0  0  0
 26 27  2  0  0  0  0
 26 28  2  0  0  0  0
 26 29  1  0  0  0  0
 29 30  1  0  0  0  0
 30 31  1  0  0  0  0
 30 32  1  0  0  0  0
 30 33  1  0  0  0  0
 33 34  1  0  0  0  0
 33 35  1  0  0  0  0
 33 36  1  0  0  0  0
 29 36  1  0  0  0  0
 36 37  1  0  0  0  0
 36 38  1  0  0  0  0
 25 39  1  0  0  0  0
 39 40  1  0  0  0  0
 39 41  1  0  0  0  0
 39 42  1  0  0  0  0
 42 43  2  0  0  0  0
 43 44  1  0  0  0  0
 44 45  2  0  0  0  0
 45 46  1  0  0  0  0
 45 47  1  0  0  0  0
 47 48  1  0  0  0  0
 47 49  2  0  0  0  0
 21 49  1  0  0  0  0
 42 49  1  0  0  0  0
 44 50  1  0  0  0  0
 43 51  1  0  0  0  0
 21 52  1  0  0  0  0
M  END
> <Potency>
0.0888407381790633

> <pIC50>
7.051387841549026

> <Outcome>
Active

> <is_active>
1

$$$$

  Mrv1921 08232120312D          

 48 51  0  0  0  0            999 V2000
    2.8579   -6.6000    0.0000 C   0  0  0  0  0  0  0  0  0  0  0  0
    2.8579   -5.7750    0.0000 N   0  0  0  0  0  0  0  0  0  0  0  0
    2.1434   -5.3625    0.0000 S   0  0  0  0  0  0  0  0  0  0  0  0
    2.5559   -4.6480    0.0000 O   0  0  0  0  0  0  0  0  0  0  0  0
    1.7309   -6.0770    0.0000 O   0  0  0  0  0  0  0  0  0  0  0  0
    1.4289   -4.9500    0.0000 N   0  0  0  0  0  0  0  0  0  0  0  0
    0.7145   -5.3625    0.0000 C   0  0  0  0  0  0  0  0  0  0  0  0
    0.3442   -6.0997    0.0000 H   0  0  0  0  0  0  0  0  0  0  0  0
    1.0847   -6.0997    0.0000 H   0  0  0  0  0  0  0  0  0  0  0  0
    0.0000   -4.9500    0.0000 C   0  0  0  0  0  0  0  0  0  0  0  0
   -0.7145   -5.3625    0.0000 C   0  0  0  0  0  0  0  0  0  0  0  0
   -1.4289   -4.9500    0.0000 C   0  0  0  0  0  0  0  0  0  0  0  0
   -1.4289   -4.1250    0.0000 C   0  0  0  0  0  0  0  0  0  0  0  0
   -2.1434   -3.7125    0.0000 Cl  0  0  0  0  0  0  0  0  0  0  0  0
   -0.7145   -3.7125    0.0000 C   0  0  0  0  0  0  0  0  0  0  0  0
   -0.7145   -2.8875    0.0000 H   0  0  0  0  0  0  0  0  0  0  0  0
    0.0000   -4.1250    0.0000 C   0  0  0  0  0  0  0  0  0  0  0  0
    0.7145   -3.7125    0.0000 C   0  0  0  0  0  0  0  0  0  0  0  0
    0.7145   -2.8875    0.0000 C   0  0  0  0  0  0  0  0  0  0  0  0
    0.0000   -2.4750    0.0000 O   0  0  0  0  0  0  0  0  0  0  0  0
    1.4289   -2.4750    0.0000 N   0  0  0  0  0  0  0  0  0  0  0  0
    1.4289   -1.6500    0.0000 C   0  0  0  0  0  0  0  0  0  0  0  0
    0.7145   -1.2375    0.0000 C   0  0  0  0  0  0  0  0  0  0  0  0
    0.0000   -1.6500    0.0000 H   0  0  0  0  0  0  0  0  0  0  0  0
    0.7145   -0.4125    0.0000 N   0  0  0  0  0  0  0  0  0  0  0  0
    1.4289    0.0000    0.0000 C   0  0  0  0  0  0  0  0  0  0  0  0
    1.4289    0.8250    0.0000 H   0  0  0  0  0  0  0  0  0  0  0  0
    2.1434   -0.4125    0.0000 C   0  0  0  0  0  0  0  0  0  0  0  0
    2.8579    0.0000    0.0000 C   0  0  0  0  0  0  0  0  0  0  0  0
    3.5724   -0.4125    0.0000 C   0  0  0  0  0  0  0  0  0  0  0  0
    3.5724   -1.2375    0.0000 C   0  0  0  0  0  0  0  0  0  0  0  0
    2.8579   -1.6500    0.0000 C   0  0  0  0  0  0  0  0  0  0  0  0
    2.8579   -2.4750    0.0000 H   0  0  0  0  0  0  0  0  0  0  0  0
    2.1434   -1.2375    0.0000 C   0  0  0  0  0  0  0  0  0  0  0  0
    4.2868   -1.6500    0.0000 H   0  0  0  0  0  0  0  0  0  0  0  0
    4.2868   -0.0000    0.0000 H   0  0  0  0  0  0  0  0  0  0  0  0
    2.8579    0.8250    0.0000 H   0  0  0  0  0  0  0  0  0  0  0  0
    2.2539   -2.4750    0.0000 H   0  0  0  0  0  0  0  0  0  0  0  0
    1.4289   -3.3000    0.0000 H   0  0  0  0  0  0  0  0  0  0  0  0
    1.4289   -4.1250    0.0000 C   0  0  0  0  0  0  0  0  0  0  0  0
    2.2042   -4.4072    0.0000 H   0  0  0  0  0  0  0  0  0  0  0  0
    2.2042   -3.8428    0.0000 H   0  0  0  0  0  0  0  0  0  0  0  0
   -2.1434   -5.3625    0.0000 H   0  0  0  0  0  0  0  0  0  0  0  0
   -0.7145   -6.1875    0.0000 H   0  0  0  0  0  0  0  0  0  0  0  0
    3.5724   -5.3625    0.0000 H   0  0  0  0  0  0  0  0  0  0  0  0
    2.0329   -6.6000    0.0000 H   0  0  0  0  0  0  0  0  0  0  0  0
    2.8579   -7.4250    0.0000 H   0  0  0  0  0  0  0  0  0  0  0  0
    3.6829   -6.6000    0.0000 H   0  0  0  0  0  0  0  0  0  0  0  0
  1  2  1  0  0  0  0
  2  3  1  0  0  0  0
  3  4  2  0  0  0  0
  3  5  2  0  0  0  0
  3  6  1  0  0  0  0
  6  7  1  0  0  0  0
  7  8  1  0  0  0  0
  7  9  1  0  0  0  0
  7 10  1  0  0  0  0
 10 11  2  0  0  0  0
 11 12  1  0  0  0  0
 12 13  2  0  0  0  0
 13 14  1  0  0  0  0
 13 15  1  0  0  0  0
 15 16  1  0  0  0  0
 15 17  2  0  0  0  0
 10 17  1  0  0  0  0
 17 18  1  0  0  0  0
 18 19  1  0  0  0  0
 19 20  2  0  0  0  0
 19 21  1  0  0  0  0
 21 22  1  0  0  0  0
 22 23  2  0  0  0  0
 23 24  1  0  0  0  0
 23 25  1  0  0  0  0
 25 26  2  0  0  0  0
 26 27  1  0  0  0  0
 26 28  1  0  0  0  0
 28 29  2  0  0  0  0
 29 30  1  0  0  0  0
 30 31  2  0  0  0  0
 31 32  1  0  0  0  0
 32 33  1  0  0  0  0
 32 34  2  0  0  0  0
 22 34  1  0  0  0  0
 28 34  1  0  0  0  0
 31 35  1  0  0  0  0
 30 36  1  0  0  0  0
 29 37  1  0  0  0  0
 21 38  1  0  0  0  0
 18 39  1  0  0  0  0
 18 40  1  0  0  0  0
  6 40  1  0  0  0  0
 40 41  1  0  0  0  0
 40 42  1  0  0  0  0
 12 43  1  0  0  0  0
 11 44  1  0  0  0  0
  2 45  1  0  0  0  0
  1 46  1  0  0  0  0
  1 47  1  0  0  0  0
  1 48  1  0  0  0  0
M  END
> <Potency>
0.148652333181323

> <pIC50>
6.8278282699113015

> <Outcome>
Active

> <is_active>
1

$$$$

  Mrv1921 08232120312D          

 49 52  0  0  0  0            999 V2000
    2.8579   -6.6000    0.0000 C   0  0  0  0  0  0  0  0  0  0  0  0
    2.8579   -5.7750    0.0000 C   0  0  0  0  0  0  0  0  0  0  0  0
    2.1434   -5.3625    0.0000 S   0  0  0  0  0  0  0  0  0  0  0  0
    2.5559   -4.6480    0.0000 O   0  0  0  0  0  0  0  0  0  0  0  0
    1.7309   -6.0770    0.0000 O   0  0  0  0  0  0  0  0  0  0  0  0
    1.4289   -4.9500    0.0000 N   0  0  0  0  0  0  0  0  0  0  0  0
    0.7145   -5.3625    0.0000 C   0  0  0  0  0  0  0  0  0  0  0  0
    0.3442   -6.0997    0.0000 H   0  0  0  0  0  0  0  0  0  0  0  0
    1.0847   -6.0997    0.0000 H   0  0  0  0  0  0  0  0  0  0  0  0
    0.0000   -4.9500    0.0000 C   0  0  0  0  0  0  0  0  0  0  0  0
   -0.7145   -5.3625    0.0000 C   0  0  0  0  0  0  0  0  0  0  0  0
   -1.4289   -4.9500    0.0000 C   0  0  0  0  0  0  0  0  0  0  0  0
   -1.4289   -4.1250    0.0000 C   0  0  0  0  0  0  0  0  0  0  0  0
   -2.1434   -3.7125    0.0000 Cl  0  0  0  0  0  0  0  0  0  0  0  0
   -0.7145   -3.7125    0.0000 C   0  0  0  0  0  0  0  0  0  0  0  0
   -0.7145   -2.8875    0.0000 H   0  0  0  0  0  0  0  0  0  0  0  0
    0.0000   -4.1250    0.0000 C   0  0  0  0  0  0  0  0  0  0  0  0
    0.7145   -3.7125    0.0000 C   0  0  0  0  0  0  0  0  0  0  0  0
    0.7145   -2.8875    0.0000 C   0  0  0  0  0  0  0  0  0  0  0  0
    0.0000   -2.4750    0.0000 O   0  0  0  0  0  0  0  0  0  0  0  0
    1.4289   -2.4750    0.0000 N   0  0  0  0  0  0  0  0  0  0  0  0
    1.4289   -1.6500    0.0000 C   0  0  0  0  0  0  0  0  0  0  0  0
    0.7145   -1.2375    0.0000 C   0  0  0  0  0  0  0  0  0  0  0  0
    0.0000   -1.6500    0.0000 H   0  0  0  0  0  0  0  0  0  0  0  0
    0.7145   -0.4125    0.0000 N   0  0  0  0  0  0  0  0  0  0  0  0
    1.4289    0.0000    0.0000 C   0  0  0  0  0  0  0  0  0  0  0  0
    1.4289    0.8250    0.0000 H   0  0  0  0  0  0  0  0  0  0  0  0
    2.1434   -0.4125    0.0000 C   0  0  0  0  0  0  0  0  0  0  0  0
    2.8579    0.0000    0.0000 C   0  0  0  0  0  0  0  0  0  0  0  0
    3.5724   -0.4125    0.0000 C   0  0  0  0  0  0  0  0  0  0  0  0
    3.5724   -1.2375    0.0000 C   0  0  0  0  0  0  0  0  0  0  0  0
    2.8579   -1.6500    0.0000 C   0  0  0  0  0  0  0  0  0  0  0  0
    2.8579   -2.4750    0.0000 H   0  0  0  0  0  0  0  0  0  0  0  0
    2.1434   -1.2375    0.0000 C   0  0  0  0  0  0  0  0  0  0  0  0
    4.2868   -1.6500    0.0000 H   0  0  0  0  0  0  0  0  0  0  0  0
    4.2868   -0.0000    0.0000 H   0  0  0  0  0  0  0  0  0  0  0  0
    2.8579    0.8250    0.0000 H   0  0  0  0  0  0  0  0  0  0  0  0
    2.2539   -2.4750    0.0000 H   0  0  0  0  0  0  0  0  0  0  0  0
    1.4289   -3.3000    0.0000 H   0  0  0  0  0  0  0  0  0  0  0  0
    1.4289   -4.1250    0.0000 C   0  0  0  0  0  0  0  0  0  0  0  0
    2.2042   -4.4072    0.0000 H   0  0  0  0  0  0  0  0  0  0  0  0
    2.2042   -3.8428    0.0000 H   0  0  0  0  0  0  0  0  0  0  0  0
   -2.1434   -5.3625    0.0000 H   0  0  0  0  0  0  0  0  0  0  0  0
   -0.7145   -6.1875    0.0000 H   0  0  0  0  0  0  0  0  0  0  0  0
    3.6815   -5.7270    0.0000 H   0  0  0  0  0  0  0  0  0  0  0  0
    3.3112   -5.0857    0.0000 H   0  0  0  0  0  0  0  0  0  0  0  0
    2.0329   -6.6000    0.0000 H   0  0  0  0  0  0  0  0  0  0  0  0
    2.8579   -7.4250    0.0000 H   0  0  0  0  0  0  0  0  0  0  0  0
    3.6829   -6.6000    0.0000 H   0  0  0  0  0  0  0  0  0  0  0  0
  1  2  1  0  0  0  0
  2  3  1  0  0  0  0
  3  4  2  0  0  0  0
  3  5  2  0  0  0  0
  3  6  1  0  0  0  0
  6  7  1  0  0  0  0
  7  8  1  0  0  0  0
  7  9  1  0  0  0  0
  7 10  1  0  0  0  0
 10 11  2  0  0  0  0
 11 12  1  0  0  0  0
 12 13  2  0  0  0  0
 13 14  1  0  0  0  0
 13 15  1  0  0  0  0
 15 16  1  0  0  0  0
 15 17  2  0  0  0  0
 10 17  1  0  0  0  0
 17 18  1  0  0  0  0
 18 19  1  0  0  0  0
 19 20  2  0  0  0  0
 19 21  1  0  0  0  0
 21 22  1  0  0  0  0
 22 23  2  0  0  0  0
 23 24  1  0  0  0  0
 23 25  1  0  0  0  0
 25 26  2  0  0  0  0
 26 27  1  0  0  0  0
 26 28  1  0  0  0  0
 28 29  2  0  0  0  0
 29 30  1  0  0  0  0
 30 31  2  0  0  0  0
 31 32  1  0  0  0  0
 32 33  1  0  0  0  0
 32 34  2  0  0  0  0
 22 34  1  0  0  0  0
 28 34  1  0  0  0  0
 31 35  1  0  0  0  0
 30 36  1  0  0  0  0
 29 37  1  0  0  0  0
 21 38  1  0  0  0  0
 18 39  1  0  0  0  0
 18 40  1  0  0  0  0
  6 40  1  0  0  0  0
 40 41  1  0  0  0  0
 40 42  1  0  0  0  0
 12 43  1  0  0  0  0
 11 44  1  0  0  0  0
  2 45  1  0  0  0  0
  2 46  1  0  0  0  0
  1 47  1  0  0  0  0
  1 48  1  0  0  0  0
  1 49  1  0  0  0  0
M  END
> <Potency>
0.211369721647116

> <pIC50>
6.674957224518522

> <Outcome>
Active

> <is_active>
1

$$$$

  Mrv1921 08232120312D          

 49 53  0  0  0  0            999 V2000
    0.7145   -2.8875    0.0000 O   0  0  0  0  0  0  0  0  0  0  0  0
    1.4289   -2.4750    0.0000 C   0  0  0  0  0  0  0  0  0  0  0  0
    2.1434   -2.8875    0.0000 N   0  0  0  0  0  0  0  0  0  0  0  0
    2.1434   -3.7125    0.0000 C   0  0  0  0  0  0  0  0  0  0  0  0
    2.8579   -4.1250    0.0000 C   0  0  0  0  0  0  0  0  0  0  0  0
    3.5724   -3.7125    0.0000 H   0  0  0  0  0  0  0  0  0  0  0  0
    2.8579   -4.9500    0.0000 N   0  0  0  0  0  0  0  0  0  0  0  0
    2.1434   -5.3625    0.0000 C   0  0  0  0  0  0  0  0  0  0  0  0
    2.1434   -6.1875    0.0000 H   0  0  0  0  0  0  0  0  0  0  0  0
    1.4289   -4.9500    0.0000 C   0  0  0  0  0  0  0  0  0  0  0  0
    0.7145   -5.3625    0.0000 C   0  0  0  0  0  0  0  0  0  0  0  0
    0.0000   -4.9500    0.0000 C   0  0  0  0  0  0  0  0  0  0  0  0
    0.0000   -4.1250    0.0000 C   0  0  0  0  0  0  0  0  0  0  0  0
    0.7145   -3.7125    0.0000 C   0  0  0  0  0  0  0  0  0  0  0  0
    1.4289   -3.3000    0.0000 H   0  0  0  0  0  0  0  0  0  0  0  0
    1.4289   -4.1250    0.0000 C   0  0  0  0  0  0  0  0  0  0  0  0
   -0.7145   -3.7125    0.0000 H   0  0  0  0  0  0  0  0  0  0  0  0
   -0.7145   -5.3625    0.0000 H   0  0  0  0  0  0  0  0  0  0  0  0
    0.7145   -6.1875    0.0000 H   0  0  0  0  0  0  0  0  0  0  0  0
    2.8579   -2.4750    0.0000 H   0  0  0  0  0  0  0  0  0  0  0  0
    1.4289   -1.6500    0.0000 C   0  0  0  0  0  0  0  0  0  0  0  0
    0.7145   -1.2375    0.0000 C   0  0  0  0  0  0  0  0  0  0  0  0
   -0.1091   -1.2855    0.0000 H   0  0  0  0  0  0  0  0  0  0  0  0
    0.2611   -1.9268    0.0000 H   0  0  0  0  0  0  0  0  0  0  0  0
    0.7145   -0.4125    0.0000 N   0  0  0  0  0  0  0  0  0  0  0  0
    0.0000    0.0000    0.0000 C   0  0  0  0  0  0  0  0  0  0  0  0
   -0.7145   -0.4125    0.0000 O   0  0  0  0  0  0  0  0  0  0  0  0
    0.0000    0.8250    0.0000 C   0  0  0  0  0  0  0  0  0  0  0  0
   -0.4125    1.5395    0.0000 C   0  0  0  0  0  0  0  0  0  0  0  0
   -0.7828    2.2767    0.0000 H   0  0  0  0  0  0  0  0  0  0  0  0
   -1.2361    1.4915    0.0000 H   0  0  0  0  0  0  0  0  0  0  0  0
    0.4125    1.5395    0.0000 C   0  0  0  0  0  0  0  0  0  0  0  0
    1.2361    1.4915    0.0000 H   0  0  0  0  0  0  0  0  0  0  0  0
    0.7828    2.2767    0.0000 H   0  0  0  0  0  0  0  0  0  0  0  0
    0.7969    0.6115    0.0000 H   0  0  0  0  0  0  0  0  0  0  0  0
    1.4289    0.0000    0.0000 C   0  0  0  0  0  0  0  0  0  0  0  0
    2.1747    0.3528    0.0000 H   0  0  0  0  0  0  0  0  0  0  0  0
    1.5632    0.8140    0.0000 H   0  0  0  0  0  0  0  0  0  0  0  0
    2.1434   -0.4125    0.0000 C   0  0  0  0  0  0  0  0  0  0  0  0
    2.8579    0.0000    0.0000 C   0  0  0  0  0  0  0  0  0  0  0  0
    3.5724   -0.4125    0.0000 C   0  0  0  0  0  0  0  0  0  0  0  0
    3.5724   -1.2375    0.0000 C   0  0  0  0  0  0  0  0  0  0  0  0
    4.2868   -1.6500    0.0000 Cl  0  0  0  0  0  0  0  0  0  0  0  0
    2.8579   -1.6500    0.0000 C   0  0  0  0  0  0  0  0  0  0  0  0
    2.8579   -0.8250    0.0000 H   0  0  0  0  0  0  0  0  0  0  0  0
    2.1434   -1.2375    0.0000 C   0  0  0  0  0  0  0  0  0  0  0  0
    4.2868   -0.0000    0.0000 H   0  0  0  0  0  0  0  0  0  0  0  0
    3.2535    0.7240    0.0000 H   0  0  0  0  0  0  0  0  0  0  0  0
    2.1434   -2.0625    0.0000 H   0  0  0  0  0  0  0  0  0  0  0  0
  1  2  2  0  0  0  0
  2  3  1  0  0  0  0
  3  4  1  0  0  0  0
  4  5  2  0  0  0  0
  5  6  1  0  0  0  0
  5  7  1  0  0  0  0
  7  8  2  0  0  0  0
  8  9  1  0  0  0  0
  8 10  1  0  0  0  0
 10 11  2  0  0  0  0
 11 12  1  0  0  0  0
 12 13  2  0  0  0  0
 13 14  1  0  0  0  0
 14 15  1  0  0  0  0
 14 16  2  0  0  0  0
  4 16  1  0  0  0  0
 10 16  1  0  0  0  0
 13 17  1  0  0  0  0
 12 18  1  0  0  0  0
 11 19  1  0  0  0  0
  3 20  1  0  0  0  0
  2 21  1  0  0  0  0
 21 22  1  0  0  0  0
 22 23  1  0  0  0  0
 22 24  1  0  0  0  0
 22 25  1  0  0  0  0
 25 26  1  0  0  0  0
 26 27  2  0  0  0  0
 26 28  1  0  0  0  0
 28 29  1  0  0  0  0
 29 30  1  0  0  0  0
 29 31  1  0  0  0  0
 29 32  1  0  0  0  0
 28 32  1  0  0  0  0
 32 33  1  0  0  0  0
 32 34  1  0  0  0  0
 28 35  1  0  0  0  0
 25 36  1  0  0  0  0
 36 37  1  0  0  0  0
 36 38  1  0  0  0  0
 36 39  1  0  0  0  0
 39 40  2  0  0  0  0
 40 41  1  0  0  0  0
 41 42  2  0  0  0  0
 42 43  1  0  0  0  0
 42 44  1  0  0  0  0
 44 45  1  0  0  0  0
 44 46  2  0  0  0  0
 21 46  1  0  0  0  0
 39 46  1  0  0  0  0
 41 47  1  0  0  0  0
 40 48  1  0  0  0  0
 21 49  1  0  0  0  0
M  END
> <Potency>
0.487229229830729

> <pIC50>
6.312266665421556

> <Outcome>
Active

> <is_active>
1

$$$$

  Mrv1921 08232120312D          

 50 53  0  0  0  0            999 V2000
    2.8579   -6.6000    0.0000 C   0  0  0  0  0  0  0  0  0  0  0  0
    2.1434   -6.1875    0.0000 N   0  0  0  0  0  0  0  0  0  0  0  0
    1.4289   -6.6000    0.0000 C   0  0  0  0  0  0  0  0  0  0  0  0
    1.0164   -5.8855    0.0000 H   0  0  0  0  0  0  0  0  0  0  0  0
    0.7145   -7.0125    0.0000 H   0  0  0  0  0  0  0  0  0  0  0  0
    1.8414   -7.3145    0.0000 H   0  0  0  0  0  0  0  0  0  0  0  0
    2.1434   -5.3625    0.0000 C   0  0  0  0  0  0  0  0  0  0  0  0
    2.8579   -4.9500    0.0000 O   0  0  0  0  0  0  0  0  0  0  0  0
    1.4289   -4.9500    0.0000 N   0  0  0  0  0  0  0  0  0  0  0  0
    0.7145   -5.3625    0.0000 C   0  0  0  0  0  0  0  0  0  0  0  0
    0.1311   -5.9459    0.0000 H   0  0  0  0  0  0  0  0  0  0  0  0
    0.7145   -4.5375    0.0000 H   0  0  0  0  0  0  0  0  0  0  0  0
    0.0000   -4.9500    0.0000 C   0  0  0  0  0  0  0  0  0  0  0  0
   -0.7145   -5.3625    0.0000 C   0  0  0  0  0  0  0  0  0  0  0  0
   -1.4289   -4.9500    0.0000 C   0  0  0  0  0  0  0  0  0  0  0  0
   -1.4289   -4.1250    0.0000 C   0  0  0  0  0  0  0  0  0  0  0  0
   -2.1434   -3.7125    0.0000 Cl  0  0  0  0  0  0  0  0  0  0  0  0
   -0.7145   -3.7125    0.0000 C   0  0  0  0  0  0  0  0  0  0  0  0
   -0.7145   -2.8875    0.0000 H   0  0  0  0  0  0  0  0  0  0  0  0
    0.0000   -4.1250    0.0000 C   0  0  0  0  0  0  0  0  0  0  0  0
    0.7145   -3.7125    0.0000 C   0  0  0  0  0  0  0  0  0  0  0  0
    0.7145   -2.8875    0.0000 C   0  0  0  0  0  0  0  0  0  0  0  0
    0.0000   -2.4750    0.0000 O   0  0  0  0  0  0  0  0  0  0  0  0
    1.4289   -2.4750    0.0000 N   0  0  0  0  0  0  0  0  0  0  0  0
    1.4289   -1.6500    0.0000 C   0  0  0  0  0  0  0  0  0  0  0  0
    0.7145   -1.2375    0.0000 C   0  0  0  0  0  0  0  0  0  0  0  0
    0.0000   -1.6500    0.0000 H   0  0  0  0  0  0  0  0  0  0  0  0
    0.7145   -0.4125    0.0000 N   0  0  0  0  0  0  0  0  0  0  0  0
    1.4289    0.0000    0.0000 C   0  0  0  0  0  0  0  0  0  0  0  0
    1.4289    0.8250    0.0000 H   0  0  0  0  0  0  0  0  0  0  0  0
    2.1434   -0.4125    0.0000 C   0  0  0  0  0  0  0  0  0  0  0  0
    2.8579    0.0000    0.0000 C   0  0  0  0  0  0  0  0  0  0  0  0
    3.5724   -0.4125    0.0000 C   0  0  0  0  0  0  0  0  0  0  0  0
    3.5724   -1.2375    0.0000 C   0  0  0  0  0  0  0  0  0  0  0  0
    2.8579   -1.6500    0.0000 C   0  0  0  0  0  0  0  0  0  0  0  0
    2.8579   -2.4750    0.0000 H   0  0  0  0  0  0  0  0  0  0  0  0
    2.1434   -1.2375    0.0000 C   0  0  0  0  0  0  0  0  0  0  0  0
    4.2868   -1.6500    0.0000 H   0  0  0  0  0  0  0  0  0  0  0  0
    4.2868   -0.0000    0.0000 H   0  0  0  0  0  0  0  0  0  0  0  0
    2.8579    0.8250    0.0000 H   0  0  0  0  0  0  0  0  0  0  0  0
    2.2539   -2.4750    0.0000 H   0  0  0  0  0  0  0  0  0  0  0  0
    1.4289   -3.3000    0.0000 H   0  0  0  0  0  0  0  0  0  0  0  0
    1.4289   -4.1250    0.0000 C   0  0  0  0  0  0  0  0  0  0  0  0
    2.2042   -4.4072    0.0000 H   0  0  0  0  0  0  0  0  0  0  0  0
    2.2042   -3.8428    0.0000 H   0  0  0  0  0  0  0  0  0  0  0  0
   -2.1434   -5.3625    0.0000 H   0  0  0  0  0  0  0  0  0  0  0  0
   -0.7145   -6.1875    0.0000 H   0  0  0  0  0  0  0  0  0  0  0  0
    2.4454   -7.3145    0.0000 H   0  0  0  0  0  0  0  0  0  0  0  0
    3.5724   -7.0125    0.0000 H   0  0  0  0  0  0  0  0  0  0  0  0
    3.2704   -5.8855    0.0000 H   0  0  0  0  0  0  0  0  0  0  0  0
  1  2  1  0  0  0  0
  2  3  1  0  0  0  0
  3  4  1  0  0  0  0
  3  5  1  0  0  0  0
  3  6  1  0  0  0  0
  2  7  1  0  0  0  0
  7  8  2  0  0  0  0
  7  9  1  0  0  0  0
  9 10  1  0  0  0  0
 10 11  1  0  0  0  0
 10 12  1  0  0  0  0
 10 13  1  0  0  0  0
 13 14  2  0  0  0  0
 14 15  1  0  0  0  0
 15 16  2  0  0  0  0
 16 17  1  0  0  0  0
 16 18  1  0  0  0  0
 18 19  1  0  0  0  0
 18 20  2  0  0  0  0
 13 20  1  0  0  0  0
 20 21  1  0  0  0  0
 21 22  1  0  0  0  0
 22 23  2  0  0  0  0
 22 24  1  0  0  0  0
 24 25  1  0  0  0  0
 25 26  2  0  0  0  0
 26 27  1  0  0  0  0
 26 28  1  0  0  0  0
 28 29  2  0  0  0  0
 29 30  1  0  0  0  0
 29 31  1  0  0  0  0
 31 32  2  0  0  0  0
 32 33  1  0  0  0  0
 33 34  2  0  0  0  0
 34 35  1  0  0  0  0
 35 36  1  0  0  0  0
 35 37  2  0  0  0  0
 25 37  1  0  0  0  0
 31 37  1  0  0  0  0
 34 38  1  0  0  0  0
 33 39  1  0  0  0  0
 32 40  1  0  0  0  0
 24 41  1  0  0  0  0
 21 42  1  0  0  0  0
 21 43  1  0  0  0  0
  9 43  1  0  0  0  0
 43 44  1  0  0  0  0
 43 45  1  0  0  0  0
 15 46  1  0  0  0  0
 14 47  1  0  0  0  0
  1 48  1  0  0  0  0
  1 49  1  0  0  0  0
  1 50  1  0  0  0  0
M  END
> <Potency>
0.275265816977005

> <pIC50>
6.560247716757756

> <Outcome>
Active

> <is_active>
1

$$$$

  Mrv1921 08232120312D          

 50 53  0  0  0  0            999 V2000
    0.0000   -7.4250    0.0000 C   0  0  0  0  0  0  0  0  0  0  0  0
   -0.7145   -7.8375    0.0000 O   0  0  0  0  0  0  0  0  0  0  0  0
   -1.4289   -7.4250    0.0000 C   0  0  0  0  0  0  0  0  0  0  0  0
   -2.1434   -7.8375    0.0000 C   0  0  0  0  0  0  0  0  0  0  0  0
   -2.1434   -8.6625    0.0000 H   0  0  0  0  0  0  0  0  0  0  0  0
   -2.8579   -7.4250    0.0000 C   0  0  0  0  0  0  0  0  0  0  0  0
   -3.5724   -7.8375    0.0000 Br  0  0  0  0  0  0  0  0  0  0  0  0
   -2.8579   -6.6000    0.0000 C   0  0  0  0  0  0  0  0  0  0  0  0
   -3.5724   -6.1875    0.0000 H   0  0  0  0  0  0  0  0  0  0  0  0
   -2.1434   -6.1875    0.0000 C   0  0  0  0  0  0  0  0  0  0  0  0
   -2.1434   -5.3625    0.0000 H   0  0  0  0  0  0  0  0  0  0  0  0
   -1.4289   -6.6000    0.0000 C   0  0  0  0  0  0  0  0  0  0  0  0
   -0.7145   -6.1875    0.0000 N   0  0  0  0  0  0  0  0  0  0  0  0
   -0.7145   -5.3625    0.0000 C   0  0  0  0  0  0  0  0  0  0  0  0
   -1.4289   -4.9500    0.0000 C   0  0  0  0  0  0  0  0  0  0  0  0
   -1.4289   -5.7750    0.0000 H   0  0  0  0  0  0  0  0  0  0  0  0
   -1.4289   -4.1250    0.0000 C   0  0  0  0  0  0  0  0  0  0  0  0
   -2.1434   -3.7125    0.0000 Cl  0  0  0  0  0  0  0  0  0  0  0  0
   -0.7145   -3.7125    0.0000 C   0  0  0  0  0  0  0  0  0  0  0  0
   -0.7145   -2.8875    0.0000 H   0  0  0  0  0  0  0  0  0  0  0  0
    0.0000   -4.1250    0.0000 C   0  0  0  0  0  0  0  0  0  0  0  0
    0.7145   -3.7125    0.0000 C   0  0  0  0  0  0  0  0  0  0  0  0
    0.7145   -2.8875    0.0000 C   0  0  0  0  0  0  0  0  0  0  0  0
    0.0000   -2.4750    0.0000 O   0  0  0  0  0  0  0  0  0  0  0  0
    1.4289   -2.4750    0.0000 N   0  0  0  0  0  0  0  0  0  0  0  0
    1.4289   -1.6500    0.0000 C   0  0  0  0  0  0  0  0  0  0  0  0
    0.7145   -1.2375    0.0000 C   0  0  0  0  0  0  0  0  0  0  0  0
    0.0000   -1.6500    0.0000 H   0  0  0  0  0  0  0  0  0  0  0  0
    0.7145   -0.4125    0.0000 N   0  0  0  0  0  0  0  0  0  0  0  0
    1.4289    0.0000    0.0000 C   0  0  0  0  0  0  0  0  0  0  0  0
    1.4289    0.8250    0.0000 H   0  0  0  0  0  0  0  0  0  0  0  0
    2.1434   -0.4125    0.0000 C   0  0  0  0  0  0  0  0  0  0  0  0
    2.8579    0.0000    0.0000 C   0  0  0  0  0  0  0  0  0  0  0  0
    3.5724   -0.4125    0.0000 C   0  0  0  0  0  0  0  0  0  0  0  0
    3.5724   -1.2375    0.0000 C   0  0  0  0  0  0  0  0  0  0  0  0
    2.8579   -1.6500    0.0000 C   0  0  0  0  0  0  0  0  0  0  0  0
    2.8579   -2.4750    0.0000 H   0  0  0  0  0  0  0  0  0  0  0  0
    2.1434   -1.2375    0.0000 C   0  0  0  0  0  0  0  0  0  0  0  0
    4.2868   -1.6500    0.0000 H   0  0  0  0  0  0  0  0  0  0  0  0
    4.2868   -0.0000    0.0000 H   0  0  0  0  0  0  0  0  0  0  0  0
    2.8579    0.8250    0.0000 H   0  0  0  0  0  0  0  0  0  0  0  0
    2.1434   -2.8875    0.0000 H   0  0  0  0  0  0  0  0  0  0  0  0
    1.1678   -4.4018    0.0000 H   0  0  0  0  0  0  0  0  0  0  0  0
    1.5381   -3.7605    0.0000 H   0  0  0  0  0  0  0  0  0  0  0  0
    0.0000   -4.9500    0.0000 C   0  0  0  0  0  0  0  0  0  0  0  0
    0.7145   -5.3625    0.0000 H   0  0  0  0  0  0  0  0  0  0  0  0
    0.0824   -5.9740    0.0000 H   0  0  0  0  0  0  0  0  0  0  0  0
    0.4125   -8.1395    0.0000 H   0  0  0  0  0  0  0  0  0  0  0  0
    0.7145   -7.0125    0.0000 H   0  0  0  0  0  0  0  0  0  0  0  0
   -0.4125   -6.7105    0.0000 H   0  0  0  0  0  0  0  0  0  0  0  0
  1  2  1  0  0  0  0
  2  3  1  0  0  0  0
  3  4  2  0  0  0  0
  4  5  1  0  0  0  0
  4  6  1  0  0  0  0
  6  7  1  0  0  0  0
  6  8  2  0  0  0  0
  8  9  1  0  0  0  0
  8 10  1  0  0  0  0
 10 11  1  0  0  0  0
 10 12  2  0  0  0  0
  3 12  1  0  0  0  0
 12 13  1  0  0  0  0
 13 14  1  0  0  0  0
 14 15  2  0  0  0  0
 15 16  1  0  0  0  0
 15 17  1  0  0  0  0
 17 18  1  0  0  0  0
 17 19  2  0  0  0  0
 19 20  1  0  0  0  0
 19 21  1  0  0  0  0
 21 22  1  0  0  0  0
 22 23  1  0  0  0  0
 23 24  2  0  0  0  0
 23 25  1  0  0  0  0
 25 26  1  0  0  0  0
 26 27  2  0  0  0  0
 27 28  1  0  0  0  0
 27 29  1  0  0  0  0
 29 30  2  0  0  0  0
 30 31  1  0  0  0  0
 30 32  1  0  0  0  0
 32 33  2  0  0  0  0
 33 34  1  0  0  0  0
 34 35  2  0  0  0  0
 35 36  1  0  0  0  0
 36 37  1  0  0  0  0
 36 38  2  0  0  0  0
 26 38  1  0  0  0  0
 32 38  1  0  0  0  0
 35 39  1  0  0  0  0
 34 40  1  0  0  0  0
 33 41  1  0  0  0  0
 25 42  1  0  0  0  0
 22 43  1  0  0  0  0
 22 44  1  0  0  0  0
 21 45  2  0  0  0  0
 14 45  1  0  0  0  0
 45 46  1  0  0  0  0
 13 47  1  0  0  0  0
  1 48  1  0  0  0  0
  1 49  1  0  0  0  0
  1 50  1  0  0  0  0
M  END
> <Potency>
1.39484882746924

> <pIC50>
5.8554728583068885

> <Outcome>
Active

> <is_active>
1

$$$$

  Mrv1921 08232120312D          

 74 77  0  0  0  0            999 V2000
   -0.9150    0.9808    0.0000 C   0  0  0  0  0  0  0  0  0  0  0  0
   -0.5025    0.2663    0.0000 C   0  0  0  0  0  0  0  0  0  0  0  0
   -1.2169   -0.1462    0.0000 C   0  0  0  0  0  0  0  0  0  0  0  0
   -2.0349   -0.2539    0.0000 H   0  0  0  0  0  0  0  0  0  0  0  0
   -1.4304   -0.9431    0.0000 H   0  0  0  0  0  0  0  0  0  0  0  0
   -0.5624   -0.6484    0.0000 H   0  0  0  0  0  0  0  0  0  0  0  0
    0.2120    0.6788    0.0000 C   0  0  0  0  0  0  0  0  0  0  0  0
    0.3197   -0.1391    0.0000 H   0  0  0  0  0  0  0  0  0  0  0  0
    1.0089    0.4653    0.0000 H   0  0  0  0  0  0  0  0  0  0  0  0
    0.7142    1.3333    0.0000 H   0  0  0  0  0  0  0  0  0  0  0  0
   -0.0900   -0.4481    0.0000 O   0  0  0  0  0  0  0  0  0  0  0  0
    0.7350   -0.4481    0.0000 C   0  0  0  0  0  0  0  0  0  0  0  0
    1.1475    0.2663    0.0000 O   0  0  0  0  0  0  0  0  0  0  0  0
    1.1475   -1.1626    0.0000 N   0  0  0  0  0  0  0  0  0  0  0  0
    1.9444   -1.3761    0.0000 C   0  0  0  0  0  0  0  0  0  0  0  0
    2.7694   -1.3761    0.0000 H   0  0  0  0  0  0  0  0  0  0  0  0
    2.3569   -0.6617    0.0000 H   0  0  0  0  0  0  0  0  0  0  0  0
    1.7309   -2.1730    0.0000 C   0  0  0  0  0  0  0  0  0  0  0  0
    2.1434   -2.8875    0.0000 N   0  0  0  0  0  0  0  0  0  0  0  0
    2.9684   -2.8875    0.0000 C   0  0  0  0  0  0  0  0  0  0  0  0
    3.3809   -2.1730    0.0000 O   0  0  0  0  0  0  0  0  0  0  0  0
    3.3809   -3.6020    0.0000 C   0  0  0  0  0  0  0  0  0  0  0  0
    2.9684   -4.3164    0.0000 C   0  0  0  0  0  0  0  0  0  0  0  0
    3.3809   -5.0309    0.0000 C   0  0  0  0  0  0  0  0  0  0  0  0
    3.7934   -4.3164    0.0000 H   0  0  0  0  0  0  0  0  0  0  0  0
    2.9684   -5.7454    0.0000 C   0  0  0  0  0  0  0  0  0  0  0  0
    3.3809   -6.4599    0.0000 H   0  0  0  0  0  0  0  0  0  0  0  0
    2.1434   -5.7454    0.0000 C   0  0  0  0  0  0  0  0  0  0  0  0
    1.7309   -6.4599    0.0000 H   0  0  0  0  0  0  0  0  0  0  0  0
    1.7309   -5.0309    0.0000 N   0  0  0  0  0  0  0  0  0  0  0  0
    2.1434   -4.3164    0.0000 C   0  0  0  0  0  0  0  0  0  0  0  0
    1.3420   -4.1208    0.0000 H   0  0  0  0  0  0  0  0  0  0  0  0
    4.2059   -3.6020    0.0000 N   0  0  0  0  0  0  0  0  0  0  0  0
    4.6184   -2.8875    0.0000 C   0  0  0  0  0  0  0  0  0  0  0  0
    4.2059   -2.1730    0.0000 O   0  0  0  0  0  0  0  0  0  0  0  0
    5.4434   -2.8875    0.0000 C   0  0  0  0  0  0  0  0  0  0  0  0
    5.9283   -2.2201    0.0000 C   0  0  0  0  0  0  0  0  0  0  0  0
    5.6734   -1.4354    0.0000 H   0  0  0  0  0  0  0  0  0  0  0  0
    6.7130   -2.4750    0.0000 O   0  0  0  0  0  0  0  0  0  0  0  0
    6.7130   -3.3000    0.0000 C   0  0  0  0  0  0  0  0  0  0  0  0
    7.3804   -3.7849    0.0000 H   0  0  0  0  0  0  0  0  0  0  0  0
    5.9283   -3.5549    0.0000 N   0  0  0  0  0  0  0  0  0  0  0  0
    4.6184   -4.3164    0.0000 C   0  0  0  0  0  0  0  0  0  0  0  0
    5.4434   -4.3164    0.0000 C   0  0  0  0  0  0  0  0  0  0  0  0
    5.0465   -3.5932    0.0000 H   0  0  0  0  0  0  0  0  0  0  0  0
    5.8559   -5.0309    0.0000 C   0  0  0  0  0  0  0  0  0  0  0  0
    6.6809   -5.0309    0.0000 H   0  0  0  0  0  0  0  0  0  0  0  0
    5.4434   -5.7454    0.0000 C   0  0  0  0  0  0  0  0  0  0  0  0
    5.8559   -6.4599    0.0000 C   0  0  0  0  0  0  0  0  0  0  0  0
    6.2684   -7.1743    0.0000 C   0  0  0  0  0  0  0  0  0  0  0  0
    5.5539   -7.5868    0.0000 H   0  0  0  0  0  0  0  0  0  0  0  0
    6.6809   -7.8888    0.0000 H   0  0  0  0  0  0  0  0  0  0  0  0
    6.9829   -6.7618    0.0000 H   0  0  0  0  0  0  0  0  0  0  0  0
    5.1414   -6.8724    0.0000 C   0  0  0  0  0  0  0  0  0  0  0  0
    5.0338   -6.0544    0.0000 H   0  0  0  0  0  0  0  0  0  0  0  0
    4.3446   -6.6588    0.0000 H   0  0  0  0  0  0  0  0  0  0  0  0
    4.6392   -7.5269    0.0000 H   0  0  0  0  0  0  0  0  0  0  0  0
    6.5704   -6.0474    0.0000 C   0  0  0  0  0  0  0  0  0  0  0  0
    7.3883   -5.9397    0.0000 H   0  0  0  0  0  0  0  0  0  0  0  0
    6.7839   -5.2505    0.0000 H   0  0  0  0  0  0  0  0  0  0  0  0
    5.9159   -5.5451    0.0000 H   0  0  0  0  0  0  0  0  0  0  0  0
    4.6184   -5.7454    0.0000 C   0  0  0  0  0  0  0  0  0  0  0  0
    3.7990   -5.8410    0.0000 H   0  0  0  0  0  0  0  0  0  0  0  0
    4.2059   -5.0309    0.0000 C   0  0  0  0  0  0  0  0  0  0  0  0
    5.0309   -5.0309    0.0000 H   0  0  0  0  0  0  0  0  0  0  0  0
    2.5559   -3.6020    0.0000 H   0  0  0  0  0  0  0  0  0  0  0  0
    2.1164   -3.7121    0.0000 H   0  0  0  0  0  0  0  0  0  0  0  0
    1.2287   -2.8275    0.0000 H   0  0  0  0  0  0  0  0  0  0  0  0
    0.9340   -1.9595    0.0000 C   0  0  0  0  0  0  0  0  0  0  0  0
    0.1684   -1.6521    0.0000 H   0  0  0  0  0  0  0  0  0  0  0  0
    0.1902   -2.3163    0.0000 H   0  0  0  0  0  0  0  0  0  0  0  0
   -0.2005    1.3933    0.0000 H   0  0  0  0  0  0  0  0  0  0  0  0
   -1.3275    1.6953    0.0000 H   0  0  0  0  0  0  0  0  0  0  0  0
   -1.6294    0.5683    0.0000 H   0  0  0  0  0  0  0  0  0  0  0  0
  1  2  1  0  0  0  0
  2  3  1  0  0  0  0
  3  4  1  0  0  0  0
  3  5  1  0  0  0  0
  3  6  1  0  0  0  0
  2  7  1  0  0  0  0
  7  8  1  0  0  0  0
  7  9  1  0  0  0  0
  7 10  1  0  0  0  0
  2 11  1  0  0  0  0
 11 12  1  0  0  0  0
 12 13  2  0  0  0  0
 12 14  1  0  0  0  0
 14 15  1  0  0  0  0
 15 16  1  0  0  0  0
 15 17  1  0  0  0  0
 15 18  1  0  0  0  0
 18 19  1  0  0  0  0
 19 20  1  0  0  0  0
 20 21  2  0  0  0  0
 20 22  1  0  0  0  0
 22 23  1  0  0  0  0
 23 24  2  0  0  0  0
 24 25  1  0  0  0  0
 24 26  1  0  0  0  0
 26 27  1  0  0  0  0
 26 28  2  0  0  0  0
 28 29  1  0  0  0  0
 28 30  1  0  0  0  0
 30 31  2  0  0  0  0
 23 31  1  0  0  0  0
 31 32  1  0  0  0  0
 22 33  1  0  0  0  0
 33 34  1  0  0  0  0
 34 35  2  0  0  0  0
 34 36  1  0  0  0  0
 36 37  2  0  0  0  0
 37 38  1  0  0  0  0
 37 39  1  0  0  0  0
 39 40  1  0  0  0  0
 40 41  1  0  0  0  0
 40 42  2  0  0  0  0
 36 42  1  0  0  0  0
 33 43  1  0  0  0  0
 43 44  2  0  0  0  0
 44 45  1  0  0  0  0
 44 46  1  0  0  0  0
 46 47  1  0  0  0  0
 46 48  2  0  0  0  0
 48 49  1  0  0  0  0
 49 50  1  0  0  0  0
 50 51  1  0  0  0  0
 50 52  1  0  0  0  0
 50 53  1  0  0  0  0
 49 54  1  0  0  0  0
 54 55  1  0  0  0  0
 54 56  1  0  0  0  0
 54 57  1  0  0  0  0
 49 58  1  0  0  0  0
 58 59  1  0  0  0  0
 58 60  1  0  0  0  0
 58 61  1  0  0  0  0
 48 62  1  0  0  0  0
 62 63  1  0  0  0  0
 62 64  2  0  0  0  0
 43 64  1  0  0  0  0
 64 65  1  0  0  0  0
 22 66  1  0  0  0  0
 19 67  1  0  0  0  0
 18 68  1  0  0  0  0
 18 69  1  0  0  0  0
 14 69  1  0  0  0  0
 69 70  1  0  0  0  0
 69 71  1  0  0  0  0
  1 72  1  0  0  0  0
  1 73  1  0  0  0  0
  1 74  1  0  0  0  0
M  END
> <Potency>
6.91259576397528

> <pIC50>
5.16035883912624

> <Outcome>
Active

> <is_active>
1

$$$$

  Mrv1921 08232120312D          

 66 71  0  0  0  0            999 V2000
    2.8480   -3.6872    0.0000 C   0  0  0  0  0  0  0  0  0  0  0  0
    2.0830   -3.3782    0.0000 N   0  0  0  0  0  0  0  0  0  0  0  0
    1.3834   -3.8154    0.0000 C   0  0  0  0  0  0  0  0  0  0  0  0
    1.3259   -4.6384    0.0000 H   0  0  0  0  0  0  0  0  0  0  0  0
    0.7514   -3.2851    0.0000 C   0  0  0  0  0  0  0  0  0  0  0  0
   -0.0491   -3.4847    0.0000 H   0  0  0  0  0  0  0  0  0  0  0  0
    1.0605   -2.5202    0.0000 N   0  0  0  0  0  0  0  0  0  0  0  0
    1.8835   -2.5777    0.0000 C   0  0  0  0  0  0  0  0  0  0  0  0
    2.4138   -1.9457    0.0000 C   0  0  0  0  0  0  0  0  0  0  0  0
    3.2262   -2.0890    0.0000 N   0  0  0  0  0  0  0  0  0  0  0  0
    3.7565   -1.4570    0.0000 C   0  0  0  0  0  0  0  0  0  0  0  0
    3.4744   -0.6817    0.0000 O   0  0  0  0  0  0  0  0  0  0  0  0
    4.5690   -1.6002    0.0000 C   0  0  0  0  0  0  0  0  0  0  0  0
    5.0993   -0.9683    0.0000 C   0  0  0  0  0  0  0  0  0  0  0  0
    5.6296   -1.6002    0.0000 C   0  0  0  0  0  0  0  0  0  0  0  0
    6.4421   -1.4570    0.0000 O   0  0  0  0  0  0  0  0  0  0  0  0
    5.3474   -2.3755    0.0000 N   0  0  0  0  0  0  0  0  0  0  0  0
    5.8777   -3.0075    0.0000 C   0  0  0  0  0  0  0  0  0  0  0  0
    6.6902   -2.8642    0.0000 C   0  0  0  0  0  0  0  0  0  0  0  0
    6.9724   -2.0890    0.0000 H   0  0  0  0  0  0  0  0  0  0  0  0
    7.2205   -3.4962    0.0000 N   0  0  0  0  0  0  0  0  0  0  0  0
    6.9383   -4.2715    0.0000 C   0  0  0  0  0  0  0  0  0  0  0  0
    7.4686   -4.9034    0.0000 H   0  0  0  0  0  0  0  0  0  0  0  0
    6.1259   -4.4147    0.0000 C   0  0  0  0  0  0  0  0  0  0  0  0
    5.8437   -5.1900    0.0000 C   0  0  0  0  0  0  0  0  0  0  0  0
    5.0312   -5.3332    0.0000 C   0  0  0  0  0  0  0  0  0  0  0  0
    4.5009   -4.7012    0.0000 C   0  0  0  0  0  0  0  0  0  0  0  0
    4.7831   -3.9260    0.0000 C   0  0  0  0  0  0  0  0  0  0  0  0
    5.3134   -4.5580    0.0000 H   0  0  0  0  0  0  0  0  0  0  0  0
    5.5956   -3.7827    0.0000 C   0  0  0  0  0  0  0  0  0  0  0  0
    3.6885   -4.8445    0.0000 H   0  0  0  0  0  0  0  0  0  0  0  0
    4.7491   -6.1085    0.0000 H   0  0  0  0  0  0  0  0  0  0  0  0
    6.3740   -5.8219    0.0000 H   0  0  0  0  0  0  0  0  0  0  0  0
    5.0177   -3.1318    0.0000 H   0  0  0  0  0  0  0  0  0  0  0  0
    4.3848   -0.5558    0.0000 C   0  0  0  0  0  0  0  0  0  0  0  0
    4.2265   -1.3654    0.0000 H   0  0  0  0  0  0  0  0  0  0  0  0
    5.0993   -0.1433    0.0000 H   0  0  0  0  0  0  0  0  0  0  0  0
    4.3848    0.2692    0.0000 C   0  0  0  0  0  0  0  0  0  0  0  0
    3.9315    0.9585    0.0000 H   0  0  0  0  0  0  0  0  0  0  0  0
    3.5612    0.3172    0.0000 H   0  0  0  0  0  0  0  0  0  0  0  0
    5.0993    0.6817    0.0000 O   0  0  0  0  0  0  0  0  0  0  0  0
    5.8138    0.2692    0.0000 C   0  0  0  0  0  0  0  0  0  0  0  0
    6.5282    0.6817    0.0000 C   0  0  0  0  0  0  0  0  0  0  0  0
    7.2427    0.2692    0.0000 C   0  0  0  0  0  0  0  0  0  0  0  0
    7.2427   -0.5558    0.0000 C   0  0  0  0  0  0  0  0  0  0  0  0
    7.9572   -0.9683    0.0000 Cl  0  0  0  0  0  0  0  0  0  0  0  0
    6.5282   -0.9683    0.0000 C   0  0  0  0  0  0  0  0  0  0  0  0
    7.2040   -1.4415    0.0000 H   0  0  0  0  0  0  0  0  0  0  0  0
    5.8138   -0.5558    0.0000 C   0  0  0  0  0  0  0  0  0  0  0  0
    7.9572    0.6817    0.0000 H   0  0  0  0  0  0  0  0  0  0  0  0
    6.5282    1.5067    0.0000 H   0  0  0  0  0  0  0  0  0  0  0  0
    4.4732   -2.4197    0.0000 H   0  0  0  0  0  0  0  0  0  0  0  0
    5.1691   -2.1664    0.0000 H   0  0  0  0  0  0  0  0  0  0  0  0
    3.5084   -2.8642    0.0000 C   0  0  0  0  0  0  0  0  0  0  0  0
    4.1404   -3.3945    0.0000 C   0  0  0  0  0  0  0  0  0  0  0  0
    4.3072   -2.5866    0.0000 H   0  0  0  0  0  0  0  0  0  0  0  0
    4.0000   -4.2075    0.0000 H   0  0  0  0  0  0  0  0  0  0  0  0
    3.3651   -3.6767    0.0000 C   0  0  0  0  0  0  0  0  0  0  0  0
    3.3868   -4.5014    0.0000 H   0  0  0  0  0  0  0  0  0  0  0  0
    3.7242   -4.4194    0.0000 H   0  0  0  0  0  0  0  0  0  0  0  0
    4.1842   -2.3910    0.0000 H   0  0  0  0  0  0  0  0  0  0  0  0
    2.5095   -1.1263    0.0000 H   0  0  0  0  0  0  0  0  0  0  0  0
    1.8137   -1.3796    0.0000 H   0  0  0  0  0  0  0  0  0  0  0  0
    2.3988   -4.3792    0.0000 H   0  0  0  0  0  0  0  0  0  0  0  0
    3.0217   -4.4937    0.0000 H   0  0  0  0  0  0  0  0  0  0  0  0
    2.9971   -2.8758    0.0000 H   0  0  0  0  0  0  0  0  0  0  0  0
  1  2  1  0  0  0  0
  2  3  1  0  0  0  0
  3  4  1  0  0  0  0
  3  5  2  0  0  0  0
  5  6  1  0  0  0  0
  5  7  1  0  0  0  0
  7  8  2  0  0  0  0
  2  8  1  0  0  0  0
  8  9  1  0  0  0  0
  9 10  1  0  0  0  0
 10 11  1  0  0  0  0
 11 12  2  0  0  0  0
 11 13  1  0  0  0  0
 13 14  1  0  0  0  0
 14 15  1  0  0  0  0
 15 16  2  0  0  0  0
 15 17  1  0  0  0  0
 17 18  1  0  0  0  0
 18 19  2  0  0  0  0
 19 20  1  0  0  0  0
 19 21  1  0  0  0  0
 21 22  2  0  0  0  0
 22 23  1  0  0  0  0
 22 24  1  0  0  0  0
 24 25  2  0  0  0  0
 25 26  1  0  0  0  0
 26 27  2  0  0  0  0
 27 28  1  0  0  0  0
 28 29  1  0  0  0  0
 28 30  2  0  0  0  0
 18 30  1  0  0  0  0
 24 30  1  0  0  0  0
 27 31  1  0  0  0  0
 26 32  1  0  0  0  0
 25 33  1  0  0  0  0
 17 34  1  0  0  0  0
 14 35  1  0  0  0  0
 35 36  1  0  0  0  0
 35 37  1  0  0  0  0
 35 38  1  0  0  0  0
 38 39  1  0  0  0  0
 38 40  1  0  0  0  0
 38 41  1  0  0  0  0
 41 42  1  0  0  0  0
 42 43  2  0  0  0  0
 43 44  1  0  0  0  0
 44 45  2  0  0  0  0
 45 46  1  0  0  0  0
 45 47  1  0  0  0  0
 47 48  1  0  0  0  0
 47 49  2  0  0  0  0
 14 49  1  0  0  0  0
 42 49  1  0  0  0  0
 44 50  1  0  0  0  0
 43 51  1  0  0  0  0
 13 52  1  0  0  0  0
 13 53  1  0  0  0  0
 10 54  1  0  0  0  0
 54 55  1  0  0  0  0
 55 56  1  0  0  0  0
 55 57  1  0  0  0  0
 55 58  1  0  0  0  0
 54 58  1  0  0  0  0
 58 59  1  0  0  0  0
 58 60  1  0  0  0  0
 54 61  1  0  0  0  0
  9 62  1  0  0  0  0
  9 63  1  0  0  0  0
  1 64  1  0  0  0  0
  1 65  1  0  0  0  0
  1 66  1  0  0  0  0
M  END
> <Potency>
5.05334496683302

> <pIC50>
5.296421053616457

> <Outcome>
Active

> <is_active>
1

$$$$

  Mrv1921 08232120312D          

 53 57  0  0  0  0            999 V2000
   -0.1105   -3.7125    0.0000 C   0  0  0  0  0  0  0  0  0  0  0  0
    0.7145   -3.7125    0.0000 C   0  0  0  0  0  0  0  0  0  0  0  0
    0.7145   -4.5375    0.0000 N   0  0  0  0  0  0  0  0  0  0  0  0
    0.0000   -4.9500    0.0000 C   0  0  0  0  0  0  0  0  0  0  0  0
   -0.7145   -4.5375    0.0000 O   0  0  0  0  0  0  0  0  0  0  0  0
    0.0000   -5.7750    0.0000 C   0  0  0  0  0  0  0  0  0  0  0  0
   -0.6674   -6.2599    0.0000 C   0  0  0  0  0  0  0  0  0  0  0  0
   -1.4521   -6.0050    0.0000 H   0  0  0  0  0  0  0  0  0  0  0  0
   -0.4125   -7.0445    0.0000 C   0  0  0  0  0  0  0  0  0  0  0  0
    0.4125   -7.0445    0.0000 N   0  0  0  0  0  0  0  0  0  0  0  0
    0.6674   -7.8292    0.0000 C   0  0  0  0  0  0  0  0  0  0  0  0
    0.0000   -8.3141    0.0000 C   0  0  0  0  0  0  0  0  0  0  0  0
   -0.6674   -7.8292    0.0000 O   0  0  0  0  0  0  0  0  0  0  0  0
   -0.3873   -9.0425    0.0000 H   0  0  0  0  0  0  0  0  0  0  0  0
    0.3873   -9.0425    0.0000 H   0  0  0  0  0  0  0  0  0  0  0  0
    1.2405   -8.4226    0.0000 H   0  0  0  0  0  0  0  0  0  0  0  0
    1.4799   -7.6859    0.0000 H   0  0  0  0  0  0  0  0  0  0  0  0
    0.6674   -6.2599    0.0000 N   0  0  0  0  0  0  0  0  0  0  0  0
    1.4289   -4.9500    0.0000 H   0  0  0  0  0  0  0  0  0  0  0  0
    0.7145   -2.8875    0.0000 C   0  0  0  0  0  0  0  0  0  0  0  0
    0.0000   -2.4750    0.0000 O   0  0  0  0  0  0  0  0  0  0  0  0
    1.4289   -2.4750    0.0000 N   0  0  0  0  0  0  0  0  0  0  0  0
    1.4289   -1.6500    0.0000 C   0  0  0  0  0  0  0  0  0  0  0  0
    0.7145   -1.2375    0.0000 C   0  0  0  0  0  0  0  0  0  0  0  0
    0.0000   -1.6500    0.0000 H   0  0  0  0  0  0  0  0  0  0  0  0
    0.7145   -0.4125    0.0000 N   0  0  0  0  0  0  0  0  0  0  0  0
    1.4289    0.0000    0.0000 C   0  0  0  0  0  0  0  0  0  0  0  0
    1.4289    0.8250    0.0000 H   0  0  0  0  0  0  0  0  0  0  0  0
    2.1434   -0.4125    0.0000 C   0  0  0  0  0  0  0  0  0  0  0  0
    2.8579    0.0000    0.0000 C   0  0  0  0  0  0  0  0  0  0  0  0
    3.5724   -0.4125    0.0000 C   0  0  0  0  0  0  0  0  0  0  0  0
    3.5724   -1.2375    0.0000 C   0  0  0  0  0  0  0  0  0  0  0  0
    2.8579   -1.6500    0.0000 C   0  0  0  0  0  0  0  0  0  0  0  0
    3.3155   -2.3365    0.0000 H   0  0  0  0  0  0  0  0  0  0  0  0
    2.1434   -1.2375    0.0000 C   0  0  0  0  0  0  0  0  0  0  0  0
    4.2868   -1.6500    0.0000 H   0  0  0  0  0  0  0  0  0  0  0  0
    4.2868   -0.0000    0.0000 H   0  0  0  0  0  0  0  0  0  0  0  0
    2.8579    0.8250    0.0000 H   0  0  0  0  0  0  0  0  0  0  0  0
    2.1911   -2.1593    0.0000 H   0  0  0  0  0  0  0  0  0  0  0  0
    1.5395   -3.7125    0.0000 C   0  0  0  0  0  0  0  0  0  0  0  0
    1.9520   -2.9980    0.0000 C   0  0  0  0  0  0  0  0  0  0  0  0
    2.3645   -3.7125    0.0000 H   0  0  0  0  0  0  0  0  0  0  0  0
    2.7770   -2.9980    0.0000 C   0  0  0  0  0  0  0  0  0  0  0  0
    2.4227   -2.2529    0.0000 H   0  0  0  0  0  0  0  0  0  0  0  0
    3.1895   -3.7125    0.0000 C   0  0  0  0  0  0  0  0  0  0  0  0
    4.0145   -3.7125    0.0000 Cl  0  0  0  0  0  0  0  0  0  0  0  0
    2.7770   -4.4270    0.0000 C   0  0  0  0  0  0  0  0  0  0  0  0
    3.1895   -5.1414    0.0000 Cl  0  0  0  0  0  0  0  0  0  0  0  0
    1.9520   -4.4270    0.0000 C   0  0  0  0  0  0  0  0  0  0  0  0
    2.2677   -5.1892    0.0000 H   0  0  0  0  0  0  0  0  0  0  0  0
   -0.1105   -2.8875    0.0000 H   0  0  0  0  0  0  0  0  0  0  0  0
   -0.9355   -3.7125    0.0000 H   0  0  0  0  0  0  0  0  0  0  0  0
   -0.1105   -4.5375    0.0000 H   0  0  0  0  0  0  0  0  0  0  0  0
  1  2  1  0  0  0  0
  2  3  1  0  0  0  0
  3  4  1  0  0  0  0
  4  5  2  0  0  0  0
  4  6  1  0  0  0  0
  6  7  1  0  0  0  0
  7  8  1  0  0  0  0
  7  9  2  0  0  0  0
  9 10  1  0  0  0  0
 10 11  1  0  0  0  0
 11 12  1  0  0  0  0
 12 13  1  0  0  0  0
  9 13  1  0  0  0  0
 12 14  1  0  0  0  0
 12 15  1  0  0  0  0
 11 16  1  0  0  0  0
 11 17  1  0  0  0  0
 10 18  1  0  0  0  0
  6 18  2  0  0  0  0
  3 19  1  0  0  0  0
  2 20  1  0  0  0  0
 20 21  2  0  0  0  0
 20 22  1  0  0  0  0
 22 23  1  0  0  0  0
 23 24  2  0  0  0  0
 24 25  1  0  0  0  0
 24 26  1  0  0  0  0
 26 27  2  0  0  0  0
 27 28  1  0  0  0  0
 27 29  1  0  0  0  0
 29 30  2  0  0  0  0
 30 31  1  0  0  0  0
 31 32  2  0  0  0  0
 32 33  1  0  0  0  0
 33 34  1  0  0  0  0
 33 35  2  0  0  0  0
 23 35  1  0  0  0  0
 29 35  1  0  0  0  0
 32 36  1  0  0  0  0
 31 37  1  0  0  0  0
 30 38  1  0  0  0  0
 22 39  1  0  0  0  0
  2 40  1  0  0  0  0
 40 41  2  0  0  0  0
 41 42  1  0  0  0  0
 41 43  1  0  0  0  0
 43 44  1  0  0  0  0
 43 45  2  0  0  0  0
 45 46  1  0  0  0  0
 45 47  1  0  0  0  0
 47 48  1  0  0  0  0
 47 49  2  0  0  0  0
 40 49  1  0  0  0  0
 49 50  1  0  0  0  0
  1 51  1  0  0  0  0
  1 52  1  0  0  0  0
  1 53  1  0  0  0  0
M  END
> <Potency>
8.51800285027923

> <pIC50>
5.069662218939385

> <Outcome>
Active

> <is_active>
1

$$$$

  Mrv1921 08232120312D          

 42 45  0  0  0  0            999 V2000
    2.1434   -2.8875    0.0000 O   0  0  0  0  0  0  0  0  0  0  0  0
    1.4289   -2.4750    0.0000 C   0  0  0  0  0  0  0  0  0  0  0  0
    0.7145   -2.8875    0.0000 N   0  0  0  0  0  0  0  0  0  0  0  0
    0.7145   -3.7125    0.0000 C   0  0  0  0  0  0  0  0  0  0  0  0
    0.0000   -4.1250    0.0000 C   0  0  0  0  0  0  0  0  0  0  0  0
   -0.7145   -3.7125    0.0000 H   0  0  0  0  0  0  0  0  0  0  0  0
    0.0000   -4.9500    0.0000 N   0  0  0  0  0  0  0  0  0  0  0  0
    0.7145   -5.3625    0.0000 C   0  0  0  0  0  0  0  0  0  0  0  0
    0.7145   -6.1875    0.0000 H   0  0  0  0  0  0  0  0  0  0  0  0
    1.4289   -4.9500    0.0000 C   0  0  0  0  0  0  0  0  0  0  0  0
    1.4289   -4.1250    0.0000 C   0  0  0  0  0  0  0  0  0  0  0  0
    2.1434   -3.7125    0.0000 C   0  0  0  0  0  0  0  0  0  0  0  0
    2.8579   -4.1250    0.0000 N   0  0  0  0  0  0  0  0  0  0  0  0
    2.8579   -4.9500    0.0000 C   0  0  0  0  0  0  0  0  0  0  0  0
    2.1434   -5.3625    0.0000 C   0  0  0  0  0  0  0  0  0  0  0  0
    1.7732   -6.0997    0.0000 H   0  0  0  0  0  0  0  0  0  0  0  0
    2.5137   -6.0997    0.0000 H   0  0  0  0  0  0  0  0  0  0  0  0
    3.3112   -5.6393    0.0000 H   0  0  0  0  0  0  0  0  0  0  0  0
    3.6815   -4.9980    0.0000 H   0  0  0  0  0  0  0  0  0  0  0  0
    3.6829   -4.1250    0.0000 H   0  0  0  0  0  0  0  0  0  0  0  0
    2.8579   -3.3000    0.0000 H   0  0  0  0  0  0  0  0  0  0  0  0
    1.4289   -3.3000    0.0000 H   0  0  0  0  0  0  0  0  0  0  0  0
    0.0000   -2.4750    0.0000 H   0  0  0  0  0  0  0  0  0  0  0  0
    1.4289   -1.6500    0.0000 C   0  0  0  0  0  0  0  0  0  0  0  0
    0.7145   -1.2375    0.0000 C   0  0  0  0  0  0  0  0  0  0  0  0
   -0.1091   -1.2855    0.0000 H   0  0  0  0  0  0  0  0  0  0  0  0
    0.2611   -1.9268    0.0000 H   0  0  0  0  0  0  0  0  0  0  0  0
    0.7145   -0.4125    0.0000 C   0  0  0  0  0  0  0  0  0  0  0  0
    0.2611    0.2768    0.0000 H   0  0  0  0  0  0  0  0  0  0  0  0
   -0.1091   -0.3645    0.0000 H   0  0  0  0  0  0  0  0  0  0  0  0
    1.4289    0.0000    0.0000 O   0  0  0  0  0  0  0  0  0  0  0  0
    2.1434   -0.4125    0.0000 C   0  0  0  0  0  0  0  0  0  0  0  0
    2.8579    0.0000    0.0000 C   0  0  0  0  0  0  0  0  0  0  0  0
    3.5724   -0.4125    0.0000 C   0  0  0  0  0  0  0  0  0  0  0  0
    3.5724   -1.2375    0.0000 C   0  0  0  0  0  0  0  0  0  0  0  0
    4.2868   -1.6500    0.0000 Cl  0  0  0  0  0  0  0  0  0  0  0  0
    2.8579   -1.6500    0.0000 C   0  0  0  0  0  0  0  0  0  0  0  0
    3.2704   -2.3645    0.0000 H   0  0  0  0  0  0  0  0  0  0  0  0
    2.1434   -1.2375    0.0000 C   0  0  0  0  0  0  0  0  0  0  0  0
    4.2868   -0.0000    0.0000 H   0  0  0  0  0  0  0  0  0  0  0  0
    2.8579    0.8250    0.0000 H   0  0  0  0  0  0  0  0  0  0  0  0
    2.1434   -2.0625    0.0000 H   0  0  0  0  0  0  0  0  0  0  0  0
  1  2  2  0  0  0  0
  2  3  1  0  0  0  0
  3  4  1  0  0  0  0
  4  5  2  0  0  0  0
  5  6  1  0  0  0  0
  5  7  1  0  0  0  0
  7  8  2  0  0  0  0
  8  9  1  0  0  0  0
  8 10  1  0  0  0  0
 10 11  2  0  0  0  0
  4 11  1  0  0  0  0
 11 12  1  0  0  0  0
 12 13  1  0  0  0  0
 13 14  1  0  0  0  0
 14 15  1  0  0  0  0
 10 15  1  0  0  0  0
 15 16  1  0  0  0  0
 15 17  1  0  0  0  0
 14 18  1  0  0  0  0
 14 19  1  0  0  0  0
 13 20  1  0  0  0  0
 12 21  1  0  0  0  0
 12 22  1  0  0  0  0
  3 23  1  0  0  0  0
  2 24  1  0  0  0  0
 24 25  1  0  0  0  0
 25 26  1  0  0  0  0
 25 27  1  0  0  0  0
 25 28  1  0  0  0  0
 28 29  1  0  0  0  0
 28 30  1  0  0  0  0
 28 31  1  0  0  0  0
 31 32  1  0  0  0  0
 32 33  2  0  0  0  0
 33 34  1  0  0  0  0
 34 35  2  0  0  0  0
 35 36  1  0  0  0  0
 35 37  1  0  0  0  0
 37 38  1  0  0  0  0
 37 39  2  0  0  0  0
 24 39  1  0  0  0  0
 32 39  1  0  0  0  0
 34 40  1  0  0  0  0
 33 41  1  0  0  0  0
 24 42  1  0  0  0  0
M  END
> <Potency>
6.16250556327173

> <pIC50>
5.210242675650271

> <Outcome>
Active

> <is_active>
1

$$$$

  Mrv1921 08232120312D          

 47 50  0  0  0  0            999 V2000
   -3.4060   -3.7923    0.0000 C   0  0  0  0  0  0  0  0  0  0  0  0
   -2.5990   -3.6207    0.0000 C   0  0  0  0  0  0  0  0  0  0  0  0
   -2.3441   -2.8361    0.0000 C   0  0  0  0  0  0  0  0  0  0  0  0
   -2.8961   -2.2230    0.0000 H   0  0  0  0  0  0  0  0  0  0  0  0
   -1.5371   -2.6646    0.0000 C   0  0  0  0  0  0  0  0  0  0  0  0
   -1.2822   -1.8800    0.0000 H   0  0  0  0  0  0  0  0  0  0  0  0
   -0.9851   -3.2777    0.0000 C   0  0  0  0  0  0  0  0  0  0  0  0
   -0.1781   -3.1062    0.0000 N   0  0  0  0  0  0  0  0  0  0  0  0
    0.3739   -3.7192    0.0000 C   0  0  0  0  0  0  0  0  0  0  0  0
    0.1190   -4.5039    0.0000 C   0  0  0  0  0  0  0  0  0  0  0  0
    0.6710   -5.1170    0.0000 C   0  0  0  0  0  0  0  0  0  0  0  0
    1.4780   -4.9454    0.0000 H   0  0  0  0  0  0  0  0  0  0  0  0
    0.4161   -5.9016    0.0000 C   0  0  0  0  0  0  0  0  0  0  0  0
    0.9681   -6.5147    0.0000 H   0  0  0  0  0  0  0  0  0  0  0  0
   -0.3909   -6.0731    0.0000 C   0  0  0  0  0  0  0  0  0  0  0  0
   -0.6459   -6.8577    0.0000 H   0  0  0  0  0  0  0  0  0  0  0  0
   -0.9429   -5.4600    0.0000 C   0  0  0  0  0  0  0  0  0  0  0  0
   -1.7499   -5.6315    0.0000 Cl  0  0  0  0  0  0  0  0  0  0  0  0
   -0.6880   -4.6754    0.0000 C   0  0  0  0  0  0  0  0  0  0  0  0
   -0.4331   -3.8908    0.0000 H   0  0  0  0  0  0  0  0  0  0  0  0
    1.1720   -3.9281    0.0000 H   0  0  0  0  0  0  0  0  0  0  0  0
    1.0181   -3.2038    0.0000 H   0  0  0  0  0  0  0  0  0  0  0  0
    0.0768   -2.3215    0.0000 C   0  0  0  0  0  0  0  0  0  0  0  0
   -0.4752   -1.7084    0.0000 O   0  0  0  0  0  0  0  0  0  0  0  0
    0.8838   -2.1500    0.0000 C   0  0  0  0  0  0  0  0  0  0  0  0
    1.1387   -1.3654    0.0000 N   0  0  0  0  0  0  0  0  0  0  0  0
    0.6538   -0.6979    0.0000 N   0  0  0  0  0  0  0  0  0  0  0  0
    1.1387   -0.0305    0.0000 N   0  0  0  0  0  0  0  0  0  0  0  0
    1.9233   -0.2854    0.0000 C   0  0  0  0  0  0  0  0  0  0  0  0
    2.6378    0.1271    0.0000 C   0  0  0  0  0  0  0  0  0  0  0  0
    3.3523   -0.2854    0.0000 C   0  0  0  0  0  0  0  0  0  0  0  0
    3.3523   -1.1104    0.0000 C   0  0  0  0  0  0  0  0  0  0  0  0
    2.6378   -1.5229    0.0000 C   0  0  0  0  0  0  0  0  0  0  0  0
    2.6378   -2.3479    0.0000 H   0  0  0  0  0  0  0  0  0  0  0  0
    1.9233   -1.1104    0.0000 C   0  0  0  0  0  0  0  0  0  0  0  0
    4.0668   -1.5229    0.0000 H   0  0  0  0  0  0  0  0  0  0  0  0
    4.0668    0.1271    0.0000 H   0  0  0  0  0  0  0  0  0  0  0  0
    2.6378    0.9521    0.0000 H   0  0  0  0  0  0  0  0  0  0  0  0
    1.1019   -2.9456    0.0000 H   0  0  0  0  0  0  0  0  0  0  0  0
    1.6523   -2.4501    0.0000 H   0  0  0  0  0  0  0  0  0  0  0  0
   -1.2400   -4.0623    0.0000 C   0  0  0  0  0  0  0  0  0  0  0  0
   -1.4950   -4.8469    0.0000 H   0  0  0  0  0  0  0  0  0  0  0  0
   -2.0470   -4.2338    0.0000 C   0  0  0  0  0  0  0  0  0  0  0  0
   -2.6601   -4.7859    0.0000 H   0  0  0  0  0  0  0  0  0  0  0  0
   -3.5775   -2.9853    0.0000 H   0  0  0  0  0  0  0  0  0  0  0  0
   -4.2130   -3.9638    0.0000 H   0  0  0  0  0  0  0  0  0  0  0  0
   -3.2345   -4.5992    0.0000 H   0  0  0  0  0  0  0  0  0  0  0  0
  1  2  1  0  0  0  0
  2  3  2  0  0  0  0
  3  4  1  0  0  0  0
  3  5  1  0  0  0  0
  5  6  1  0  0  0  0
  5  7  2  0  0  0  0
  7  8  1  0  0  0  0
  8  9  1  0  0  0  0
  9 10  1  0  0  0  0
 10 11  2  0  0  0  0
 11 12  1  0  0  0  0
 11 13  1  0  0  0  0
 13 14  1  0  0  0  0
 13 15  2  0  0  0  0
 15 16  1  0  0  0  0
 15 17  1  0  0  0  0
 17 18  1  0  0  0  0
 17 19  2  0  0  0  0
 10 19  1  0  0  0  0
 19 20  1  0  0  0  0
  9 21  1  0  0  0  0
  9 22  1  0  0  0  0
  8 23  1  0  0  0  0
 23 24  2  0  0  0  0
 23 25  1  0  0  0  0
 25 26  1  0  0  0  0
 26 27  1  0  0  0  0
 27 28  2  0  0  0  0
 28 29  1  0  0  0  0
 29 30  2  0  0  0  0
 30 31  1  0  0  0  0
 31 32  2  0  0  0  0
 32 33  1  0  0  0  0
 33 34  1  0  0  0  0
 33 35  2  0  0  0  0
 26 35  1  0  0  0  0
 29 35  1  0  0  0  0
 32 36  1  0  0  0  0
 31 37  1  0  0  0  0
 30 38  1  0  0  0  0
 25 39  1  0  0  0  0
 25 40  1  0  0  0  0
  7 41  1  0  0  0  0
 41 42  1  0  0  0  0
 41 43  2  0  0  0  0
  2 43  1  0  0  0  0
 43 44  1  0  0  0  0
  1 45  1  0  0  0  0
  1 46  1  0  0  0  0
  1 47  1  0  0  0  0
M  END
> <Potency>
2.33427847396582

> <pIC50>
5.631847334883403

> <Outcome>
Active

> <is_active>
1

$$$$

  Mrv1921 08232120312D          

 38 41  0  0  0  0            999 V2000
    2.1434   -2.8875    0.0000 O   0  0  0  0  0  0  0  0  0  0  0  0
    1.4289   -2.4750    0.0000 C   0  0  0  0  0  0  0  0  0  0  0  0
    0.7145   -2.8875    0.0000 O   0  0  0  0  0  0  0  0  0  0  0  0
    0.7145   -3.7125    0.0000 C   0  0  0  0  0  0  0  0  0  0  0  0
    1.4289   -4.1250    0.0000 C   0  0  0  0  0  0  0  0  0  0  0  0
    2.1434   -3.7125    0.0000 H   0  0  0  0  0  0  0  0  0  0  0  0
    1.4289   -4.9500    0.0000 N   0  0  0  0  0  0  0  0  0  0  0  0
    0.7145   -5.3625    0.0000 C   0  0  0  0  0  0  0  0  0  0  0  0
    0.7145   -6.1875    0.0000 H   0  0  0  0  0  0  0  0  0  0  0  0
    0.0000   -4.9500    0.0000 C   0  0  0  0  0  0  0  0  0  0  0  0
   -0.7145   -5.3625    0.0000 C   0  0  0  0  0  0  0  0  0  0  0  0
   -1.4289   -4.9500    0.0000 C   0  0  0  0  0  0  0  0  0  0  0  0
   -1.4289   -4.1250    0.0000 C   0  0  0  0  0  0  0  0  0  0  0  0
   -0.7145   -3.7125    0.0000 C   0  0  0  0  0  0  0  0  0  0  0  0
   -0.7145   -2.8875    0.0000 H   0  0  0  0  0  0  0  0  0  0  0  0
    0.0000   -4.1250    0.0000 C   0  0  0  0  0  0  0  0  0  0  0  0
   -2.1434   -3.7125    0.0000 H   0  0  0  0  0  0  0  0  0  0  0  0
   -2.1434   -5.3625    0.0000 H   0  0  0  0  0  0  0  0  0  0  0  0
   -0.7145   -6.1875    0.0000 H   0  0  0  0  0  0  0  0  0  0  0  0
    1.4289   -1.6500    0.0000 C   0  0  0  0  0  0  0  0  0  0  0  0
    0.7145   -1.2375    0.0000 C   0  0  0  0  0  0  0  0  0  0  0  0
   -0.1091   -1.2855    0.0000 H   0  0  0  0  0  0  0  0  0  0  0  0
    0.2611   -1.9268    0.0000 H   0  0  0  0  0  0  0  0  0  0  0  0
    0.7145   -0.4125    0.0000 C   0  0  0  0  0  0  0  0  0  0  0  0
    0.2611    0.2768    0.0000 H   0  0  0  0  0  0  0  0  0  0  0  0
   -0.1091   -0.3645    0.0000 H   0  0  0  0  0  0  0  0  0  0  0  0
    1.4289    0.0000    0.0000 O   0  0  0  0  0  0  0  0  0  0  0  0
    2.1434   -0.4125    0.0000 C   0  0  0  0  0  0  0  0  0  0  0  0
    2.8579    0.0000    0.0000 C   0  0  0  0  0  0  0  0  0  0  0  0
    3.5724   -0.4125    0.0000 C   0  0  0  0  0  0  0  0  0  0  0  0
    3.5724   -1.2375    0.0000 C   0  0  0  0  0  0  0  0  0  0  0  0
    4.2868   -1.6500    0.0000 Cl  0  0  0  0  0  0  0  0  0  0  0  0
    2.8579   -1.6500    0.0000 C   0  0  0  0  0  0  0  0  0  0  0  0
    3.2704   -2.3645    0.0000 H   0  0  0  0  0  0  0  0  0  0  0  0
    2.1434   -1.2375    0.0000 C   0  0  0  0  0  0  0  0  0  0  0  0
    4.2868   -0.0000    0.0000 H   0  0  0  0  0  0  0  0  0  0  0  0
    2.8579    0.8250    0.0000 H   0  0  0  0  0  0  0  0  0  0  0  0
    2.1434   -2.0625    0.0000 H   0  0  0  0  0  0  0  0  0  0  0  0
  1  2  2  0  0  0  0
  2  3  1  0  0  0  0
  3  4  1  0  0  0  0
  4  5  2  0  0  0  0
  5  6  1  0  0  0  0
  5  7  1  0  0  0  0
  7  8  2  0  0  0  0
  8  9  1  0  0  0  0
  8 10  1  0  0  0  0
 10 11  2  0  0  0  0
 11 12  1  0  0  0  0
 12 13  2  0  0  0  0
 13 14  1  0  0  0  0
 14 15  1  0  0  0  0
 14 16  2  0  0  0  0
  4 16  1  0  0  0  0
 10 16  1  0  0  0  0
 13 17  1  0  0  0  0
 12 18  1  0  0  0  0
 11 19  1  0  0  0  0
  2 20  1  0  0  0  0
 20 21  1  0  0  0  0
 21 22  1  0  0  0  0
 21 23  1  0  0  0  0
 21 24  1  0  0  0  0
 24 25  1  0  0  0  0
 24 26  1  0  0  0  0
 24 27  1  0  0  0  0
 27 28  1  0  0  0  0
 28 29  2  0  0  0  0
 29 30  1  0  0  0  0
 30 31  2  0  0  0  0
 31 32  1  0  0  0  0
 31 33  1  0  0  0  0
 33 34  1  0  0  0  0
 33 35  2  0  0  0  0
 20 35  1  0  0  0  0
 28 35  1  0  0  0  0
 30 36  1  0  0  0  0
 29 37  1  0  0  0  0
 20 38  1  0  0  0  0
M  END
> <Potency>
0.522106063668248

> <pIC50>
6.282241262923419

> <Outcome>
Active

> <is_active>
1

$$$$

  Mrv1921 08232120312D          

 34 35  0  0  0  0            999 V2000
    1.3225    7.9585    0.0000 O   0  0  0  0  0  0  0  0  0  0  0  0
    2.1452    7.8969    0.0000 C   0  0  0  0  0  0  0  0  0  0  0  0
    2.6099    8.5785    0.0000 C   0  0  0  0  0  0  0  0  0  0  0  0
    2.2520    9.3218    0.0000 Cl  0  0  0  0  0  0  0  0  0  0  0  0
    3.3174    8.1542    0.0000 H   0  0  0  0  0  0  0  0  0  0  0  0
    3.3728    8.8926    0.0000 H   0  0  0  0  0  0  0  0  0  0  0  0
    2.5031    7.1536    0.0000 N   0  0  0  0  0  0  0  0  0  0  0  0
    3.3281    7.1536    0.0000 C   0  0  0  0  0  0  0  0  0  0  0  0
    3.9732    7.6679    0.0000 H   0  0  0  0  0  0  0  0  0  0  0  0
    3.3281    7.9786    0.0000 H   0  0  0  0  0  0  0  0  0  0  0  0
    3.8425    6.5086    0.0000 C   0  0  0  0  0  0  0  0  0  0  0  0
    4.6468    6.3250    0.0000 H   0  0  0  0  0  0  0  0  0  0  0  0
    4.4875    7.0229    0.0000 H   0  0  0  0  0  0  0  0  0  0  0  0
    3.6589    5.7042    0.0000 C   0  0  0  0  0  0  0  0  0  0  0  0
    4.0169    4.9609    0.0000 H   0  0  0  0  0  0  0  0  0  0  0  0
    4.4633    5.5207    0.0000 H   0  0  0  0  0  0  0  0  0  0  0  0
    2.9156    5.3463    0.0000 N   0  0  0  0  0  0  0  0  0  0  0  0
    2.9156    4.5213    0.0000 S   0  0  0  0  0  0  0  0  0  0  0  0
    2.0906    4.5213    0.0000 O   0  0  0  0  0  0  0  0  0  0  0  0
    3.7406    4.5213    0.0000 O   0  0  0  0  0  0  0  0  0  0  0  0
    2.9156    3.6963    0.0000 C   0  0  0  0  0  0  0  0  0  0  0  0
    3.5831    3.2114    0.0000 C   0  0  0  0  0  0  0  0  0  0  0  0
    4.3677    3.4663    0.0000 H   0  0  0  0  0  0  0  0  0  0  0  0
    3.3281    2.4267    0.0000 C   0  0  0  0  0  0  0  0  0  0  0  0
    3.8131    1.7593    0.0000 H   0  0  0  0  0  0  0  0  0  0  0  0
    2.5031    2.4267    0.0000 C   0  0  0  0  0  0  0  0  0  0  0  0
    2.0182    1.7593    0.0000 H   0  0  0  0  0  0  0  0  0  0  0  0
    2.2482    3.2114    0.0000 S   0  0  0  0  0  0  0  0  0  0  0  0
    2.1723    5.7042    0.0000 C   0  0  0  0  0  0  0  0  0  0  0  0
    1.3680    5.5207    0.0000 H   0  0  0  0  0  0  0  0  0  0  0  0
    1.8144    4.9609    0.0000 H   0  0  0  0  0  0  0  0  0  0  0  0
    1.9888    6.5086    0.0000 C   0  0  0  0  0  0  0  0  0  0  0  0
    1.3438    7.0229    0.0000 H   0  0  0  0  0  0  0  0  0  0  0  0
    1.1844    6.3250    0.0000 H   0  0  0  0  0  0  0  0  0  0  0  0
  1  2  2  0  0  0  0
  2  3  1  0  0  0  0
  3  4  1  0  0  0  0
  3  5  1  0  0  0  0
  3  6  1  0  0  0  0
  2  7  1  0  0  0  0
  7  8  1  0  0  0  0
  8  9  1  0  0  0  0
  8 10  1  0  0  0  0
  8 11  1  0  0  0  0
 11 12  1  0  0  0  0
 11 13  1  0  0  0  0
 11 14  1  0  0  0  0
 14 15  1  0  0  0  0
 14 16  1  0  0  0  0
 14 17  1  0  0  0  0
 17 18  1  0  0  0  0
 18 19  2  0  0  0  0
 18 20  2  0  0  0  0
 18 21  1  0  0  0  0
 21 22  2  0  0  0  0
 22 23  1  0  0  0  0
 22 24  1  0  0  0  0
 24 25  1  0  0  0  0
 24 26  2  0  0  0  0
 26 27  1  0  0  0  0
 26 28  1  0  0  0  0
 21 28  1  0  0  0  0
 17 29  1  0  0  0  0
 29 30  1  0  0  0  0
 29 31  1  0  0  0  0
 29 32  1  0  0  0  0
  7 32  1  0  0  0  0
 32 33  1  0  0  0  0
 32 34  1  0  0  0  0
M  END
> <Potency>
7.23905298331297

> <pIC50>
5.140318244717559

> <Outcome>
Active

> <is_active>
1

$$$$

  Mrv1921 08232120312D          

 44 45  0  0  0  0            999 V2000
    3.5724    1.2375    0.0000 C   0  0  0  0  0  0  0  0  0  0  0  0
    2.8579    0.8250    0.0000 O   0  0  0  0  0  0  0  0  0  0  0  0
    2.8579   -0.0000    0.0000 C   0  0  0  0  0  0  0  0  0  0  0  0
    2.1434   -0.4125    0.0000 C   0  0  0  0  0  0  0  0  0  0  0  0
    2.1434   -1.2375    0.0000 C   0  0  0  0  0  0  0  0  0  0  0  0
    2.8579   -1.6500    0.0000 C   0  0  0  0  0  0  0  0  0  0  0  0
    3.6829   -1.6500    0.0000 H   0  0  0  0  0  0  0  0  0  0  0  0
    2.8579   -2.4750    0.0000 C   0  0  0  0  0  0  0  0  0  0  0  0
    3.5724   -2.8875    0.0000 H   0  0  0  0  0  0  0  0  0  0  0  0
    2.1434   -2.8875    0.0000 C   0  0  0  0  0  0  0  0  0  0  0  0
    2.1434   -3.7125    0.0000 Cl  0  0  0  0  0  0  0  0  0  0  0  0
    1.4289   -2.4750    0.0000 C   0  0  0  0  0  0  0  0  0  0  0  0
    0.7145   -2.8875    0.0000 H   0  0  0  0  0  0  0  0  0  0  0  0
    1.4289   -1.6500    0.0000 C   0  0  0  0  0  0  0  0  0  0  0  0
    0.7145   -1.2375    0.0000 C   0  0  0  0  0  0  0  0  0  0  0  0
    0.7145   -0.4125    0.0000 N   0  0  0  0  0  0  0  0  0  0  0  0
    0.0000    0.0000    0.0000 C   0  0  0  0  0  0  0  0  0  0  0  0
   -0.8236   -0.0480    0.0000 H   0  0  0  0  0  0  0  0  0  0  0  0
   -0.4533   -0.6893    0.0000 H   0  0  0  0  0  0  0  0  0  0  0  0
    0.0000    0.8250    0.0000 C   0  0  0  0  0  0  0  0  0  0  0  0
   -0.4533    1.5143    0.0000 H   0  0  0  0  0  0  0  0  0  0  0  0
   -0.8236    0.8730    0.0000 H   0  0  0  0  0  0  0  0  0  0  0  0
    0.7145    1.2375    0.0000 N   0  0  0  0  0  0  0  0  0  0  0  0
    0.7145    2.0625    0.0000 C   0  0  0  0  0  0  0  0  0  0  0  0
    1.4289    2.4750    0.0000 O   0  0  0  0  0  0  0  0  0  0  0  0
    0.0000    2.4750    0.0000 C   0  0  0  0  0  0  0  0  0  0  0  0
   -0.7145    2.0625    0.0000 Cl  0  0  0  0  0  0  0  0  0  0  0  0
    0.3703    3.2122    0.0000 H   0  0  0  0  0  0  0  0  0  0  0  0
   -0.3703    3.2122    0.0000 H   0  0  0  0  0  0  0  0  0  0  0  0
    1.4289    0.8250    0.0000 C   0  0  0  0  0  0  0  0  0  0  0  0
    2.0609    1.3553    0.0000 H   0  0  0  0  0  0  0  0  0  0  0  0
    1.5722    1.6375    0.0000 H   0  0  0  0  0  0  0  0  0  0  0  0
    1.4289    0.0000    0.0000 C   0  0  0  0  0  0  0  0  0  0  0  0
    1.4289   -0.8250    0.0000 H   0  0  0  0  0  0  0  0  0  0  0  0
    0.7145    0.4125    0.0000 H   0  0  0  0  0  0  0  0  0  0  0  0
   -0.1091   -1.2855    0.0000 H   0  0  0  0  0  0  0  0  0  0  0  0
    0.2611   -1.9268    0.0000 H   0  0  0  0  0  0  0  0  0  0  0  0
    2.1434    0.4125    0.0000 H   0  0  0  0  0  0  0  0  0  0  0  0
    2.8579   -0.8250    0.0000 H   0  0  0  0  0  0  0  0  0  0  0  0
    3.3112   -0.6893    0.0000 H   0  0  0  0  0  0  0  0  0  0  0  0
    3.6815   -0.0480    0.0000 H   0  0  0  0  0  0  0  0  0  0  0  0
    3.9849    0.5230    0.0000 H   0  0  0  0  0  0  0  0  0  0  0  0
    4.2868    1.6500    0.0000 H   0  0  0  0  0  0  0  0  0  0  0  0
    3.1599    1.9520    0.0000 H   0  0  0  0  0  0  0  0  0  0  0  0
  1  2  1  0  0  0  0
  2  3  1  0  0  0  0
  3  4  1  0  0  0  0
  4  5  1  0  0  0  0
  5  6  2  0  0  0  0
  6  7  1  0  0  0  0
  6  8  1  0  0  0  0
  8  9  1  0  0  0  0
  8 10  2  0  0  0  0
 10 11  1  0  0  0  0
 10 12  1  0  0  0  0
 12 13  1  0  0  0  0
 12 14  2  0  0  0  0
  5 14  1  0  0  0  0
 14 15  1  0  0  0  0
 15 16  1  0  0  0  0
 16 17  1  0  0  0  0
 17 18  1  0  0  0  0
 17 19  1  0  0  0  0
 17 20  1  0  0  0  0
 20 21  1  0  0  0  0
 20 22  1  0  0  0  0
 20 23  1  0  0  0  0
 23 24  1  0  0  0  0
 24 25  2  0  0  0  0
 24 26  1  0  0  0  0
 26 27  1  0  0  0  0
 26 28  1  0  0  0  0
 26 29  1  0  0  0  0
 23 30  1  0  0  0  0
 30 31  1  0  0  0  0
 30 32  1  0  0  0  0
 30 33  1  0  0  0  0
 16 33  1  0  0  0  0
 33 34  1  0  0  0  0
 33 35  1  0  0  0  0
 15 36  1  0  0  0  0
 15 37  1  0  0  0  0
  4 38  1  0  0  0  0
  4 39  1  0  0  0  0
  3 40  1  0  0  0  0
  3 41  1  0  0  0  0
  1 42  1  0  0  0  0
  1 43  1  0  0  0  0
  1 44  1  0  0  0  0
M  END
> <Potency>
2.20227890245608

> <pIC50>
5.657127681673306

> <Outcome>
Active

> <is_active>
1

$$$$

  Mrv1921 08232120312D          

 42 43  0  0  0  0            999 V2000
    2.8579    0.8250    0.0000 C   0  0  0  0  0  0  0  0  0  0  0  0
    2.8579   -0.0000    0.0000 C   0  0  0  0  0  0  0  0  0  0  0  0
    2.1434   -0.4125    0.0000 N   0  0  0  0  0  0  0  0  0  0  0  0
    2.1434   -1.2375    0.0000 C   0  0  0  0  0  0  0  0  0  0  0  0
    2.8579   -1.6500    0.0000 N   0  0  0  0  0  0  0  0  0  0  0  0
    2.8579   -2.4750    0.0000 C   0  0  0  0  0  0  0  0  0  0  0  0
    3.5724   -2.8875    0.0000 H   0  0  0  0  0  0  0  0  0  0  0  0
    2.1434   -2.8875    0.0000 C   0  0  0  0  0  0  0  0  0  0  0  0
    2.1434   -3.7125    0.0000 C   0  0  0  0  0  0  0  0  0  0  0  0
    2.1434   -4.5375    0.0000 N   0  0  0  0  0  0  0  0  0  0  0  0
    1.4289   -2.4750    0.0000 C   0  0  0  0  0  0  0  0  0  0  0  0
    0.7145   -2.8875    0.0000 H   0  0  0  0  0  0  0  0  0  0  0  0
    1.4289   -1.6500    0.0000 C   0  0  0  0  0  0  0  0  0  0  0  0
    0.7145   -1.2375    0.0000 C   0  0  0  0  0  0  0  0  0  0  0  0
    0.7145   -0.4125    0.0000 N   0  0  0  0  0  0  0  0  0  0  0  0
    0.0000    0.0000    0.0000 C   0  0  0  0  0  0  0  0  0  0  0  0
   -0.8236   -0.0480    0.0000 H   0  0  0  0  0  0  0  0  0  0  0  0
   -0.4533   -0.6893    0.0000 H   0  0  0  0  0  0  0  0  0  0  0  0
    0.0000    0.8250    0.0000 C   0  0  0  0  0  0  0  0  0  0  0  0
   -0.4533    1.5143    0.0000 H   0  0  0  0  0  0  0  0  0  0  0  0
   -0.8236    0.8730    0.0000 H   0  0  0  0  0  0  0  0  0  0  0  0
    0.7145    1.2375    0.0000 N   0  0  0  0  0  0  0  0  0  0  0  0
    0.7145    2.0625    0.0000 C   0  0  0  0  0  0  0  0  0  0  0  0
    1.4289    2.4750    0.0000 O   0  0  0  0  0  0  0  0  0  0  0  0
    0.0000    2.4750    0.0000 C   0  0  0  0  0  0  0  0  0  0  0  0
   -0.7145    2.0625    0.0000 Cl  0  0  0  0  0  0  0  0  0  0  0  0
    0.3703    3.2122    0.0000 H   0  0  0  0  0  0  0  0  0  0  0  0
   -0.3703    3.2122    0.0000 H   0  0  0  0  0  0  0  0  0  0  0  0
    1.4289    0.8250    0.0000 C   0  0  0  0  0  0  0  0  0  0  0  0
    1.6425    1.6219    0.0000 H   0  0  0  0  0  0  0  0  0  0  0  0
    0.7145    0.4125    0.0000 H   0  0  0  0  0  0  0  0  0  0  0  0
    1.4289    0.0000    0.0000 C   0  0  0  0  0  0  0  0  0  0  0  0
    1.1468   -0.7752    0.0000 H   0  0  0  0  0  0  0  0  0  0  0  0
    1.7111   -0.7752    0.0000 H   0  0  0  0  0  0  0  0  0  0  0  0
   -0.1091   -1.2855    0.0000 H   0  0  0  0  0  0  0  0  0  0  0  0
    0.2611   -1.9268    0.0000 H   0  0  0  0  0  0  0  0  0  0  0  0
    2.1434    0.4125    0.0000 H   0  0  0  0  0  0  0  0  0  0  0  0
    3.3112   -0.6893    0.0000 H   0  0  0  0  0  0  0  0  0  0  0  0
    3.6815   -0.0480    0.0000 H   0  0  0  0  0  0  0  0  0  0  0  0
    3.6829    0.8250    0.0000 H   0  0  0  0  0  0  0  0  0  0  0  0
    2.8579    1.6500    0.0000 H   0  0  0  0  0  0  0  0  0  0  0  0
    2.0329    0.8250    0.0000 H   0  0  0  0  0  0  0  0  0  0  0  0
  1  2  1  0  0  0  0
  2  3  1  0  0  0  0
  3  4  1  0  0  0  0
  4  5  2  0  0  0  0
  5  6  1  0  0  0  0
  6  7  1  0  0  0  0
  6  8  2  0  0  0  0
  8  9  1  0  0  0  0
  9 10  3  0  0  0  0
  8 11  1  0  0  0  0
 11 12  1  0  0  0  0
 11 13  2  0  0  0  0
  4 13  1  0  0  0  0
 13 14  1  0  0  0  0
 14 15  1  0  0  0  0
 15 16  1  0  0  0  0
 16 17  1  0  0  0  0
 16 18  1  0  0  0  0
 16 19  1  0  0  0  0
 19 20  1  0  0  0  0
 19 21  1  0  0  0  0
 19 22  1  0  0  0  0
 22 23  1  0  0  0  0
 23 24  2  0  0  0  0
 23 25  1  0  0  0  0
 25 26  1  0  0  0  0
 25 27  1  0  0  0  0
 25 28  1  0  0  0  0
 22 29  1  0  0  0  0
 29 30  1  0  0  0  0
 29 31  1  0  0  0  0
 29 32  1  0  0  0  0
 15 32  1  0  0  0  0
 32 33  1  0  0  0  0
 32 34  1  0  0  0  0
 14 35  1  0  0  0  0
 14 36  1  0  0  0  0
  3 37  1  0  0  0  0
  2 38  1  0  0  0  0
  2 39  1  0  0  0  0
  1 40  1  0  0  0  0
  1 41  1  0  0  0  0
  1 42  1  0  0  0  0
M  END
> <Potency>
3.21638505121816

> <pIC50>
5.492631965020244

> <Outcome>
Active

> <is_active>
1

$$$$

  Mrv1921 08232120312D          

 37 39  0  0  0  0            999 V2000
    3.5724   -4.5375    0.0000 N   0  0  0  0  0  0  0  0  0  0  0  0
    2.8579   -4.1250    0.0000 C   0  0  0  0  0  0  0  0  0  0  0  0
    2.1434   -3.7125    0.0000 C   0  0  0  0  0  0  0  0  0  0  0  0
    1.4289   -4.1250    0.0000 C   0  0  0  0  0  0  0  0  0  0  0  0
    1.4289   -4.9500    0.0000 H   0  0  0  0  0  0  0  0  0  0  0  0
    0.7145   -3.7125    0.0000 C   0  0  0  0  0  0  0  0  0  0  0  0
    0.0000   -4.1250    0.0000 H   0  0  0  0  0  0  0  0  0  0  0  0
    0.7145   -2.8875    0.0000 C   0  0  0  0  0  0  0  0  0  0  0  0
    0.0000   -2.4750    0.0000 H   0  0  0  0  0  0  0  0  0  0  0  0
    1.4289   -2.4750    0.0000 C   0  0  0  0  0  0  0  0  0  0  0  0
    1.4289   -1.6500    0.0000 C   0  0  0  0  0  0  0  0  0  0  0  0
    0.7145   -1.2375    0.0000 C   0  0  0  0  0  0  0  0  0  0  0  0
   -0.1091   -1.2855    0.0000 H   0  0  0  0  0  0  0  0  0  0  0  0
    0.2611   -1.9268    0.0000 H   0  0  0  0  0  0  0  0  0  0  0  0
    0.7145   -0.4125    0.0000 N   0  0  0  0  0  0  0  0  0  0  0  0
    0.0000    0.0000    0.0000 C   0  0  0  0  0  0  0  0  0  0  0  0
   -0.7145   -0.4125    0.0000 O   0  0  0  0  0  0  0  0  0  0  0  0
    0.0000    0.8250    0.0000 C   0  0  0  0  0  0  0  0  0  0  0  0
   -0.7145    1.2375    0.0000 Cl  0  0  0  0  0  0  0  0  0  0  0  0
    0.8236    0.8730    0.0000 H   0  0  0  0  0  0  0  0  0  0  0  0
    0.4533    1.5143    0.0000 H   0  0  0  0  0  0  0  0  0  0  0  0
    1.4289    0.0000    0.0000 C   0  0  0  0  0  0  0  0  0  0  0  0
    1.7992    0.7372    0.0000 H   0  0  0  0  0  0  0  0  0  0  0  0
    1.0587    0.7372    0.0000 H   0  0  0  0  0  0  0  0  0  0  0  0
    2.1434   -0.4125    0.0000 C   0  0  0  0  0  0  0  0  0  0  0  0
    2.8579    0.0000    0.0000 C   0  0  0  0  0  0  0  0  0  0  0  0
    3.5724   -0.4125    0.0000 C   0  0  0  0  0  0  0  0  0  0  0  0
    3.5724   -1.2375    0.0000 C   0  0  0  0  0  0  0  0  0  0  0  0
    2.8579   -1.6500    0.0000 C   0  0  0  0  0  0  0  0  0  0  0  0
    3.2704   -2.3645    0.0000 H   0  0  0  0  0  0  0  0  0  0  0  0
    2.1434   -1.2375    0.0000 C   0  0  0  0  0  0  0  0  0  0  0  0
    4.2868   -1.6500    0.0000 H   0  0  0  0  0  0  0  0  0  0  0  0
    4.2868   -0.0000    0.0000 H   0  0  0  0  0  0  0  0  0  0  0  0
    2.8579    0.8250    0.0000 H   0  0  0  0  0  0  0  0  0  0  0  0
    2.1434   -2.0625    0.0000 H   0  0  0  0  0  0  0  0  0  0  0  0
    2.1434   -2.8875    0.0000 C   0  0  0  0  0  0  0  0  0  0  0  0
    2.9684   -2.8875    0.0000 H   0  0  0  0  0  0  0  0  0  0  0  0
  1  2  3  0  0  0  0
  2  3  1  0  0  0  0
  3  4  2  0  0  0  0
  4  5  1  0  0  0  0
  4  6  1  0  0  0  0
  6  7  1  0  0  0  0
  6  8  2  0  0  0  0
  8  9  1  0  0  0  0
  8 10  1  0  0  0  0
 10 11  1  0  0  0  0
 11 12  1  0  0  0  0
 12 13  1  0  0  0  0
 12 14  1  0  0  0  0
 12 15  1  0  0  0  0
 15 16  1  0  0  0  0
 16 17  2  0  0  0  0
 16 18  1  0  0  0  0
 18 19  1  0  0  0  0
 18 20  1  0  0  0  0
 18 21  1  0  0  0  0
 15 22  1  0  0  0  0
 22 23  1  0  0  0  0
 22 24  1  0  0  0  0
 22 25  1  0  0  0  0
 25 26  2  0  0  0  0
 26 27  1  0  0  0  0
 27 28  2  0  0  0  0
 28 29  1  0  0  0  0
 29 30  1  0  0  0  0
 29 31  2  0  0  0  0
 11 31  1  0  0  0  0
 25 31  1  0  0  0  0
 28 32  1  0  0  0  0
 27 33  1  0  0  0  0
 26 34  1  0  0  0  0
 11 35  1  0  0  0  0
 10 36  2  0  0  0  0
  3 36  1  0  0  0  0
 36 37  1  0  0  0  0
M  END
> <Potency>
1.17209011887828

> <pIC50>
5.931038995291562

> <Outcome>
Active

> <is_active>
1

$$$$

  Mrv1921 08232120312D          

 43 46  0  0  0  0            999 V2000
    1.4289   -4.9500    0.0000 C   0  0  0  0  0  0  0  0  0  0  0  0
    1.4289   -4.1250    0.0000 N   0  0  0  0  0  0  0  0  0  0  0  0
    0.7145   -3.7125    0.0000 C   0  0  0  0  0  0  0  0  0  0  0  0
   -0.1091   -3.7605    0.0000 H   0  0  0  0  0  0  0  0  0  0  0  0
    0.2611   -4.4018    0.0000 H   0  0  0  0  0  0  0  0  0  0  0  0
    0.7145   -2.8875    0.0000 C   0  0  0  0  0  0  0  0  0  0  0  0
    0.2611   -2.1982    0.0000 H   0  0  0  0  0  0  0  0  0  0  0  0
   -0.1091   -2.8395    0.0000 H   0  0  0  0  0  0  0  0  0  0  0  0
    1.4289   -2.4750    0.0000 N   0  0  0  0  0  0  0  0  0  0  0  0
    1.4289   -1.6500    0.0000 C   0  0  0  0  0  0  0  0  0  0  0  0
    0.7145   -1.2375    0.0000 C   0  0  0  0  0  0  0  0  0  0  0  0
    0.0000   -1.6500    0.0000 H   0  0  0  0  0  0  0  0  0  0  0  0
    0.7145   -0.4125    0.0000 N   0  0  0  0  0  0  0  0  0  0  0  0
    1.4289    0.0000    0.0000 C   0  0  0  0  0  0  0  0  0  0  0  0
    1.4289    0.8250    0.0000 H   0  0  0  0  0  0  0  0  0  0  0  0
    2.1434   -0.4125    0.0000 C   0  0  0  0  0  0  0  0  0  0  0  0
    2.8579    0.0000    0.0000 C   0  0  0  0  0  0  0  0  0  0  0  0
    3.5724   -0.4125    0.0000 C   0  0  0  0  0  0  0  0  0  0  0  0
    3.5724   -1.2375    0.0000 C   0  0  0  0  0  0  0  0  0  0  0  0
    2.8579   -1.6500    0.0000 C   0  0  0  0  0  0  0  0  0  0  0  0
    2.1434   -2.0625    0.0000 H   0  0  0  0  0  0  0  0  0  0  0  0
    2.1434   -1.2375    0.0000 C   0  0  0  0  0  0  0  0  0  0  0  0
    4.2868   -1.6500    0.0000 H   0  0  0  0  0  0  0  0  0  0  0  0
    4.2868   -0.0000    0.0000 H   0  0  0  0  0  0  0  0  0  0  0  0
    2.8579    0.8250    0.0000 H   0  0  0  0  0  0  0  0  0  0  0  0
    2.1434   -2.8875    0.0000 C   0  0  0  0  0  0  0  0  0  0  0  0
    2.8579   -2.4750    0.0000 O   0  0  0  0  0  0  0  0  0  0  0  0
    2.1434   -3.7125    0.0000 C   0  0  0  0  0  0  0  0  0  0  0  0
    2.8579   -4.1250    0.0000 C   0  0  0  0  0  0  0  0  0  0  0  0
    3.5724   -3.7125    0.0000 C   0  0  0  0  0  0  0  0  0  0  0  0
    3.5724   -2.8875    0.0000 H   0  0  0  0  0  0  0  0  0  0  0  0
    4.2868   -4.1250    0.0000 C   0  0  0  0  0  0  0  0  0  0  0  0
    5.0013   -3.7125    0.0000 H   0  0  0  0  0  0  0  0  0  0  0  0
    4.2868   -4.9500    0.0000 C   0  0  0  0  0  0  0  0  0  0  0  0
    5.0013   -5.3625    0.0000 H   0  0  0  0  0  0  0  0  0  0  0  0
    3.5724   -5.3625    0.0000 C   0  0  0  0  0  0  0  0  0  0  0  0
    3.5724   -6.1875    0.0000 Cl  0  0  0  0  0  0  0  0  0  0  0  0
    2.8579   -4.9500    0.0000 C   0  0  0  0  0  0  0  0  0  0  0  0
    2.6444   -5.7469    0.0000 H   0  0  0  0  0  0  0  0  0  0  0  0
    2.1434   -4.5375    0.0000 H   0  0  0  0  0  0  0  0  0  0  0  0
    0.6039   -4.9500    0.0000 H   0  0  0  0  0  0  0  0  0  0  0  0
    1.4289   -5.7750    0.0000 H   0  0  0  0  0  0  0  0  0  0  0  0
    2.2539   -4.9500    0.0000 H   0  0  0  0  0  0  0  0  0  0  0  0
  1  2  1  0  0  0  0
  2  3  1  0  0  0  0
  3  4  1  0  0  0  0
  3  5  1  0  0  0  0
  3  6  1  0  0  0  0
  6  7  1  0  0  0  0
  6  8  1  0  0  0  0
  6  9  1  0  0  0  0
  9 10  1  0  0  0  0
 10 11  2  0  0  0  0
 11 12  1  0  0  0  0
 11 13  1  0  0  0  0
 13 14  2  0  0  0  0
 14 15  1  0  0  0  0
 14 16  1  0  0  0  0
 16 17  2  0  0  0  0
 17 18  1  0  0  0  0
 18 19  2  0  0  0  0
 19 20  1  0  0  0  0
 20 21  1  0  0  0  0
 20 22  2  0  0  0  0
 10 22  1  0  0  0  0
 16 22  1  0  0  0  0
 19 23  1  0  0  0  0
 18 24  1  0  0  0  0
 17 25  1  0  0  0  0
  9 26  1  0  0  0  0
 26 27  2  0  0  0  0
 26 28  1  0  0  0  0
  2 28  1  0  0  0  0
 28 29  1  0  0  0  0
 29 30  2  0  0  0  0
 30 31  1  0  0  0  0
 30 32  1  0  0  0  0
 32 33  1  0  0  0  0
 32 34  2  0  0  0  0
 34 35  1  0  0  0  0
 34 36  1  0  0  0  0
 36 37  1  0  0  0  0
 36 38  2  0  0  0  0
 29 38  1  0  0  0  0
 38 39  1  0  0  0  0
 28 40  1  0  0  0  0
  1 41  1  0  0  0  0
  1 42  1  0  0  0  0
  1 43  1  0  0  0  0
M  END
> <Potency>
2.21075598893942

> <pIC50>
5.655459189807201

> <Outcome>
Active

> <is_active>
1

$$$$

  Mrv1921 08232120312D          

 40 43  0  0  0  0            999 V2000
    3.7031   -1.4124    0.0000 N   0  0  0  0  0  0  0  0  0  0  0  0
    4.1156   -0.6979    0.0000 C   0  0  0  0  0  0  0  0  0  0  0  0
    3.7031    0.0165    0.0000 O   0  0  0  0  0  0  0  0  0  0  0  0
    4.9406   -0.6979    0.0000 C   0  0  0  0  0  0  0  0  0  0  0  0
    5.4255   -0.0305    0.0000 C   0  0  0  0  0  0  0  0  0  0  0  0
    5.1706    0.7541    0.0000 H   0  0  0  0  0  0  0  0  0  0  0  0
    6.2102   -0.2854    0.0000 C   0  0  0  0  0  0  0  0  0  0  0  0
    6.9246    0.1271    0.0000 C   0  0  0  0  0  0  0  0  0  0  0  0
    6.9246    0.9521    0.0000 N   0  0  0  0  0  0  0  0  0  0  0  0
    7.6391    1.3646    0.0000 C   0  0  0  0  0  0  0  0  0  0  0  0
    8.3536    0.9521    0.0000 O   0  0  0  0  0  0  0  0  0  0  0  0
    7.6391    2.1896    0.0000 C   0  0  0  0  0  0  0  0  0  0  0  0
    6.9246    2.6021    0.0000 C   0  0  0  0  0  0  0  0  0  0  0  0
    6.1010    2.5541    0.0000 H   0  0  0  0  0  0  0  0  0  0  0  0
    6.4713    1.9128    0.0000 H   0  0  0  0  0  0  0  0  0  0  0  0
    6.9246    3.4271    0.0000 C   0  0  0  0  0  0  0  0  0  0  0  0
    6.4713    4.1163    0.0000 H   0  0  0  0  0  0  0  0  0  0  0  0
    6.1010    3.4750    0.0000 H   0  0  0  0  0  0  0  0  0  0  0  0
    7.6391    3.8396    0.0000 O   0  0  0  0  0  0  0  0  0  0  0  0
    8.3536    3.4271    0.0000 C   0  0  0  0  0  0  0  0  0  0  0  0
    9.0681    3.8396    0.0000 C   0  0  0  0  0  0  0  0  0  0  0  0
    9.7825    3.4271    0.0000 C   0  0  0  0  0  0  0  0  0  0  0  0
    9.7825    2.6021    0.0000 C   0  0  0  0  0  0  0  0  0  0  0  0
   10.4970    2.1896    0.0000 Cl  0  0  0  0  0  0  0  0  0  0  0  0
    9.0681    2.1896    0.0000 C   0  0  0  0  0  0  0  0  0  0  0  0
    9.4806    1.4751    0.0000 H   0  0  0  0  0  0  0  0  0  0  0  0
    8.3536    2.6021    0.0000 C   0  0  0  0  0  0  0  0  0  0  0  0
   10.4970    3.8396    0.0000 H   0  0  0  0  0  0  0  0  0  0  0  0
    9.0681    4.6646    0.0000 H   0  0  0  0  0  0  0  0  0  0  0  0
    8.3536    1.7771    0.0000 H   0  0  0  0  0  0  0  0  0  0  0  0
    6.2102    1.3646    0.0000 H   0  0  0  0  0  0  0  0  0  0  0  0
    7.6391   -0.2854    0.0000 C   0  0  0  0  0  0  0  0  0  0  0  0
    7.6391   -1.1104    0.0000 N   0  0  0  0  0  0  0  0  0  0  0  0
    6.9246   -1.5229    0.0000 C   0  0  0  0  0  0  0  0  0  0  0  0
    6.9246   -2.3479    0.0000 H   0  0  0  0  0  0  0  0  0  0  0  0
    6.2102   -1.1104    0.0000 C   0  0  0  0  0  0  0  0  0  0  0  0
    5.4255   -1.3654    0.0000 S   0  0  0  0  0  0  0  0  0  0  0  0
    8.3536    0.1271    0.0000 H   0  0  0  0  0  0  0  0  0  0  0  0
    2.8781   -1.4124    0.0000 H   0  0  0  0  0  0  0  0  0  0  0  0
    4.1156   -2.1269    0.0000 H   0  0  0  0  0  0  0  0  0  0  0  0
  1  2  1  0  0  0  0
  2  3  2  0  0  0  0
  2  4  1  0  0  0  0
  4  5  2  0  0  0  0
  5  6  1  0  0  0  0
  5  7  1  0  0  0  0
  7  8  2  0  0  0  0
  8  9  1  0  0  0  0
  9 10  1  0  0  0  0
 10 11  2  0  0  0  0
 10 12  1  0  0  0  0
 12 13  1  0  0  0  0
 13 14  1  0  0  0  0
 13 15  1  0  0  0  0
 13 16  1  0  0  0  0
 16 17  1  0  0  0  0
 16 18  1  0  0  0  0
 16 19  1  0  0  0  0
 19 20  1  0  0  0  0
 20 21  2  0  0  0  0
 21 22  1  0  0  0  0
 22 23  2  0  0  0  0
 23 24  1  0  0  0  0
 23 25  1  0  0  0  0
 25 26  1  0  0  0  0
 25 27  2  0  0  0  0
 12 27  1  0  0  0  0
 20 27  1  0  0  0  0
 22 28  1  0  0  0  0
 21 29  1  0  0  0  0
 12 30  1  0  0  0  0
  9 31  1  0  0  0  0
  8 32  1  0  0  0  0
 32 33  2  0  0  0  0
 33 34  1  0  0  0  0
 34 35  1  0  0  0  0
 34 36  2  0  0  0  0
  7 36  1  0  0  0  0
 36 37  1  0  0  0  0
  4 37  1  0  0  0  0
 32 38  1  0  0  0  0
  1 39  1  0  0  0  0
  1 40  1  0  0  0  0
M  END
> <Potency>
0.760691933732224

> <pIC50>
6.11879118891674

> <Outcome>
Active

> <is_active>
1

$$$$

  Mrv1921 08232120312D          

 41 44  0  0  0  0            999 V2000
    0.7145   -2.8875    0.0000 O   0  0  0  0  0  0  0  0  0  0  0  0
    1.4289   -2.4750    0.0000 C   0  0  0  0  0  0  0  0  0  0  0  0
    2.1434   -2.8875    0.0000 N   0  0  0  0  0  0  0  0  0  0  0  0
    2.1434   -3.7125    0.0000 C   0  0  0  0  0  0  0  0  0  0  0  0
    2.8579   -4.1250    0.0000 C   0  0  0  0  0  0  0  0  0  0  0  0
    3.5724   -3.7125    0.0000 H   0  0  0  0  0  0  0  0  0  0  0  0
    2.8579   -4.9500    0.0000 N   0  0  0  0  0  0  0  0  0  0  0  0
    2.1434   -5.3625    0.0000 C   0  0  0  0  0  0  0  0  0  0  0  0
    2.1434   -6.1875    0.0000 H   0  0  0  0  0  0  0  0  0  0  0  0
    1.4289   -4.9500    0.0000 C   0  0  0  0  0  0  0  0  0  0  0  0
    0.7145   -5.3625    0.0000 C   0  0  0  0  0  0  0  0  0  0  0  0
    0.0000   -4.9500    0.0000 C   0  0  0  0  0  0  0  0  0  0  0  0
   -0.7145   -5.3625    0.0000 Cl  0  0  0  0  0  0  0  0  0  0  0  0
    0.0000   -4.1250    0.0000 C   0  0  0  0  0  0  0  0  0  0  0  0
    0.7145   -3.7125    0.0000 C   0  0  0  0  0  0  0  0  0  0  0  0
    1.4289   -3.3000    0.0000 H   0  0  0  0  0  0  0  0  0  0  0  0
    1.4289   -4.1250    0.0000 C   0  0  0  0  0  0  0  0  0  0  0  0
   -0.7145   -3.7125    0.0000 H   0  0  0  0  0  0  0  0  0  0  0  0
    0.7145   -6.1875    0.0000 H   0  0  0  0  0  0  0  0  0  0  0  0
    2.8579   -2.4750    0.0000 H   0  0  0  0  0  0  0  0  0  0  0  0
    1.4289   -1.6500    0.0000 C   0  0  0  0  0  0  0  0  0  0  0  0
    0.7145   -1.2375    0.0000 C   0  0  0  0  0  0  0  0  0  0  0  0
   -0.1091   -1.2855    0.0000 H   0  0  0  0  0  0  0  0  0  0  0  0
    0.2611   -1.9268    0.0000 H   0  0  0  0  0  0  0  0  0  0  0  0
    0.7145   -0.4125    0.0000 C   0  0  0  0  0  0  0  0  0  0  0  0
    0.2611    0.2768    0.0000 H   0  0  0  0  0  0  0  0  0  0  0  0
   -0.1091   -0.3645    0.0000 H   0  0  0  0  0  0  0  0  0  0  0  0
    1.4289    0.0000    0.0000 S   0  0  0  0  0  0  0  0  0  0  0  0
    0.8986    0.6320    0.0000 O   0  0  0  0  0  0  0  0  0  0  0  0
    1.9592    0.6320    0.0000 O   0  0  0  0  0  0  0  0  0  0  0  0
    2.1434   -0.4125    0.0000 C   0  0  0  0  0  0  0  0  0  0  0  0
    2.8579    0.0000    0.0000 C   0  0  0  0  0  0  0  0  0  0  0  0
    3.5724   -0.4125    0.0000 C   0  0  0  0  0  0  0  0  0  0  0  0
    3.5724   -1.2375    0.0000 C   0  0  0  0  0  0  0  0  0  0  0  0
    4.2868   -1.6500    0.0000 Cl  0  0  0  0  0  0  0  0  0  0  0  0
    2.8579   -1.6500    0.0000 C   0  0  0  0  0  0  0  0  0  0  0  0
    2.8579   -0.8250    0.0000 H   0  0  0  0  0  0  0  0  0  0  0  0
    2.1434   -1.2375    0.0000 C   0  0  0  0  0  0  0  0  0  0  0  0
    4.2868   -0.0000    0.0000 H   0  0  0  0  0  0  0  0  0  0  0  0
    2.8579    0.8250    0.0000 H   0  0  0  0  0  0  0  0  0  0  0  0
    2.1434   -2.0625    0.0000 H   0  0  0  0  0  0  0  0  0  0  0  0
  1  2  2  0  0  0  0
  2  3  1  0  0  0  0
  3  4  1  0  0  0  0
  4  5  2  0  0  0  0
  5  6  1  0  0  0  0
  5  7  1  0  0  0  0
  7  8  2  0  0  0  0
  8  9  1  0  0  0  0
  8 10  1  0  0  0  0
 10 11  2  0  0  0  0
 11 12  1  0  0  0  0
 12 13  1  0  0  0  0
 12 14  2  0  0  0  0
 14 15  1  0  0  0  0
 15 16  1  0  0  0  0
 15 17  2  0  0  0  0
  4 17  1  0  0  0  0
 10 17  1  0  0  0  0
 14 18  1  0  0  0  0
 11 19  1  0  0  0  0
  3 20  1  0  0  0  0
  2 21  1  0  0  0  0
 21 22  1  0  0  0  0
 22 23  1  0  0  0  0
 22 24  1  0  0  0  0
 22 25  1  0  0  0  0
 25 26  1  0  0  0  0
 25 27  1  0  0  0  0
 25 28  1  0  0  0  0
 28 29  2  0  0  0  0
 28 30  2  0  0  0  0
 28 31  1  0  0  0  0
 31 32  2  0  0  0  0
 32 33  1  0  0  0  0
 33 34  2  0  0  0  0
 34 35  1  0  0  0  0
 34 36  1  0  0  0  0
 36 37  1  0  0  0  0
 36 38  2  0  0  0  0
 21 38  1  0  0  0  0
 31 38  1  0  0  0  0
 33 39  1  0  0  0  0
 32 40  1  0  0  0  0
 21 41  1  0  0  0  0
M  END
> <Potency>
0.838226524390246

> <pIC50>
6.076638600703246

> <Outcome>
Active

> <is_active>
1

$$$$

  Mrv1921 08232120312D          

 50 54  0  0  0  0            999 V2000
    0.7145   -2.8875    0.0000 O   0  0  0  0  0  0  0  0  0  0  0  0
    1.4289   -2.4750    0.0000 C   0  0  0  0  0  0  0  0  0  0  0  0
    2.1434   -2.8875    0.0000 N   0  0  0  0  0  0  0  0  0  0  0  0
    2.1434   -3.7125    0.0000 C   0  0  0  0  0  0  0  0  0  0  0  0
    2.8579   -4.1250    0.0000 C   0  0  0  0  0  0  0  0  0  0  0  0
    3.5724   -3.7125    0.0000 H   0  0  0  0  0  0  0  0  0  0  0  0
    2.8579   -4.9500    0.0000 N   0  0  0  0  0  0  0  0  0  0  0  0
    2.1434   -5.3625    0.0000 C   0  0  0  0  0  0  0  0  0  0  0  0
    2.1434   -6.1875    0.0000 H   0  0  0  0  0  0  0  0  0  0  0  0
    1.4289   -4.9500    0.0000 C   0  0  0  0  0  0  0  0  0  0  0  0
    0.7145   -5.3625    0.0000 C   0  0  0  0  0  0  0  0  0  0  0  0
    0.0000   -4.9500    0.0000 C   0  0  0  0  0  0  0  0  0  0  0  0
    0.0000   -4.1250    0.0000 C   0  0  0  0  0  0  0  0  0  0  0  0
    0.7145   -3.7125    0.0000 C   0  0  0  0  0  0  0  0  0  0  0  0
    1.4289   -3.3000    0.0000 H   0  0  0  0  0  0  0  0  0  0  0  0
    1.4289   -4.1250    0.0000 C   0  0  0  0  0  0  0  0  0  0  0  0
   -0.7145   -3.7125    0.0000 H   0  0  0  0  0  0  0  0  0  0  0  0
   -0.7145   -5.3625    0.0000 H   0  0  0  0  0  0  0  0  0  0  0  0
    0.7145   -6.1875    0.0000 H   0  0  0  0  0  0  0  0  0  0  0  0
    2.8579   -2.4750    0.0000 H   0  0  0  0  0  0  0  0  0  0  0  0
    1.4289   -1.6500    0.0000 C   0  0  0  0  0  0  0  0  0  0  0  0
    0.7145   -1.2375    0.0000 C   0  0  0  0  0  0  0  0  0  0  0  0
   -0.1091   -1.2855    0.0000 H   0  0  0  0  0  0  0  0  0  0  0  0
    0.2611   -1.9268    0.0000 H   0  0  0  0  0  0  0  0  0  0  0  0
    0.7145   -0.4125    0.0000 N   0  0  0  0  0  0  0  0  0  0  0  0
    0.0000    0.0000    0.0000 S   0  0  0  0  0  0  0  0  0  0  0  0
    0.4125    0.7145    0.0000 O   0  0  0  0  0  0  0  0  0  0  0  0
   -0.4125   -0.7145    0.0000 O   0  0  0  0  0  0  0  0  0  0  0  0
   -0.7145    0.4125    0.0000 C   0  0  0  0  0  0  0  0  0  0  0  0
   -1.5395    0.4125    0.0000 C   0  0  0  0  0  0  0  0  0  0  0  0
   -2.3631    0.4605    0.0000 H   0  0  0  0  0  0  0  0  0  0  0  0
   -1.9097   -0.3247    0.0000 H   0  0  0  0  0  0  0  0  0  0  0  0
   -1.1270    1.1270    0.0000 C   0  0  0  0  0  0  0  0  0  0  0  0
   -0.6736    1.8162    0.0000 H   0  0  0  0  0  0  0  0  0  0  0  0
   -1.5803    1.8162    0.0000 H   0  0  0  0  0  0  0  0  0  0  0  0
   -0.1311    0.9959    0.0000 H   0  0  0  0  0  0  0  0  0  0  0  0
    1.4289    0.0000    0.0000 C   0  0  0  0  0  0  0  0  0  0  0  0
    1.7992    0.7372    0.0000 H   0  0  0  0  0  0  0  0  0  0  0  0
    1.0587    0.7372    0.0000 H   0  0  0  0  0  0  0  0  0  0  0  0
    2.1434   -0.4125    0.0000 C   0  0  0  0  0  0  0  0  0  0  0  0
    2.8579    0.0000    0.0000 C   0  0  0  0  0  0  0  0  0  0  0  0
    3.5724   -0.4125    0.0000 C   0  0  0  0  0  0  0  0  0  0  0  0
    3.5724   -1.2375    0.0000 C   0  0  0  0  0  0  0  0  0  0  0  0
    4.2868   -1.6500    0.0000 Cl  0  0  0  0  0  0  0  0  0  0  0  0
    2.8579   -1.6500    0.0000 C   0  0  0  0  0  0  0  0  0  0  0  0
    2.8579   -0.8250    0.0000 H   0  0  0  0  0  0  0  0  0  0  0  0
    2.1434   -1.2375    0.0000 C   0  0  0  0  0  0  0  0  0  0  0  0
    4.2868   -0.0000    0.0000 H   0  0  0  0  0  0  0  0  0  0  0  0
    2.8579    0.8250    0.0000 H   0  0  0  0  0  0  0  0  0  0  0  0
    2.1434   -2.0625    0.0000 H   0  0  0  0  0  0  0  0  0  0  0  0
  1  2  2  0  0  0  0
  2  3  1  0  0  0  0
  3  4  1  0  0  0  0
  4  5  2  0  0  0  0
  5  6  1  0  0  0  0
  5  7  1  0  0  0  0
  7  8  2  0  0  0  0
  8  9  1  0  0  0  0
  8 10  1  0  0  0  0
 10 11  2  0  0  0  0
 11 12  1  0  0  0  0
 12 13  2  0  0  0  0
 13 14  1  0  0  0  0
 14 15  1  0  0  0  0
 14 16  2  0  0  0  0
  4 16  1  0  0  0  0
 10 16  1  0  0  0  0
 13 17  1  0  0  0  0
 12 18  1  0  0  0  0
 11 19  1  0  0  0  0
  3 20  1  0  0  0  0
  2 21  1  0  0  0  0
 21 22  1  0  0  0  0
 22 23  1  0  0  0  0
 22 24  1  0  0  0  0
 22 25  1  0  0  0  0
 25 26  1  0  0  0  0
 26 27  2  0  0  0  0
 26 28  2  0  0  0  0
 26 29  1  0  0  0  0
 29 30  1  0  0  0  0
 30 31  1  0  0  0  0
 30 32  1  0  0  0  0
 30 33  1  0  0  0  0
 29 33  1  0  0  0  0
 33 34  1  0  0  0  0
 33 35  1  0  0  0  0
 29 36  1  0  0  0  0
 25 37  1  0  0  0  0
 37 38  1  0  0  0  0
 37 39  1  0  0  0  0
 37 40  1  0  0  0  0
 40 41  2  0  0  0  0
 41 42  1  0  0  0  0
 42 43  2  0  0  0  0
 43 44  1  0  0  0  0
 43 45  1  0  0  0  0
 45 46  1  0  0  0  0
 45 47  2  0  0  0  0
 21 47  1  0  0  0  0
 40 47  1  0  0  0  0
 42 48  1  0  0  0  0
 41 49  1  0  0  0  0
 21 50  1  0  0  0  0
M  END
> <Potency>
0.310304857188634

> <pIC50>
6.508211426369712

> <Outcome>
Active

> <is_active>
1

$$$$

  Mrv1921 08232120312D          

 45 48  0  0  0  0            999 V2000
    2.1434   -6.1875    0.0000 C   0  0  0  0  0  0  0  0  0  0  0  0
    2.1434   -5.3625    0.0000 C   0  0  0  0  0  0  0  0  0  0  0  0
    2.8579   -4.9500    0.0000 O   0  0  0  0  0  0  0  0  0  0  0  0
    1.4289   -4.9500    0.0000 N   0  0  0  0  0  0  0  0  0  0  0  0
    0.7145   -5.3625    0.0000 C   0  0  0  0  0  0  0  0  0  0  0  0
    0.3442   -6.0997    0.0000 H   0  0  0  0  0  0  0  0  0  0  0  0
    1.0847   -6.0997    0.0000 H   0  0  0  0  0  0  0  0  0  0  0  0
    0.0000   -4.9500    0.0000 C   0  0  0  0  0  0  0  0  0  0  0  0
   -0.7145   -5.3625    0.0000 C   0  0  0  0  0  0  0  0  0  0  0  0
   -1.4289   -4.9500    0.0000 C   0  0  0  0  0  0  0  0  0  0  0  0
   -1.4289   -4.1250    0.0000 C   0  0  0  0  0  0  0  0  0  0  0  0
   -2.1434   -3.7125    0.0000 Cl  0  0  0  0  0  0  0  0  0  0  0  0
   -0.7145   -3.7125    0.0000 C   0  0  0  0  0  0  0  0  0  0  0  0
   -0.7145   -2.8875    0.0000 H   0  0  0  0  0  0  0  0  0  0  0  0
    0.0000   -4.1250    0.0000 C   0  0  0  0  0  0  0  0  0  0  0  0
    0.7145   -3.7125    0.0000 C   0  0  0  0  0  0  0  0  0  0  0  0
    0.7145   -2.8875    0.0000 C   0  0  0  0  0  0  0  0  0  0  0  0
    0.0000   -2.4750    0.0000 O   0  0  0  0  0  0  0  0  0  0  0  0
    1.4289   -2.4750    0.0000 N   0  0  0  0  0  0  0  0  0  0  0  0
    1.4289   -1.6500    0.0000 C   0  0  0  0  0  0  0  0  0  0  0  0
    0.7145   -1.2375    0.0000 C   0  0  0  0  0  0  0  0  0  0  0  0
    0.0000   -1.6500    0.0000 H   0  0  0  0  0  0  0  0  0  0  0  0
    0.7145   -0.4125    0.0000 N   0  0  0  0  0  0  0  0  0  0  0  0
    1.4289    0.0000    0.0000 C   0  0  0  0  0  0  0  0  0  0  0  0
    1.4289    0.8250    0.0000 H   0  0  0  0  0  0  0  0  0  0  0  0
    2.1434   -0.4125    0.0000 C   0  0  0  0  0  0  0  0  0  0  0  0
    2.8579    0.0000    0.0000 C   0  0  0  0  0  0  0  0  0  0  0  0
    3.5724   -0.4125    0.0000 C   0  0  0  0  0  0  0  0  0  0  0  0
    3.5724   -1.2375    0.0000 C   0  0  0  0  0  0  0  0  0  0  0  0
    2.8579   -1.6500    0.0000 C   0  0  0  0  0  0  0  0  0  0  0  0
    2.8579   -2.4750    0.0000 H   0  0  0  0  0  0  0  0  0  0  0  0
    2.1434   -1.2375    0.0000 C   0  0  0  0  0  0  0  0  0  0  0  0
    4.2868   -1.6500    0.0000 H   0  0  0  0  0  0  0  0  0  0  0  0
    4.2868   -0.0000    0.0000 H   0  0  0  0  0  0  0  0  0  0  0  0
    2.8579    0.8250    0.0000 H   0  0  0  0  0  0  0  0  0  0  0  0
    2.2539   -2.4750    0.0000 H   0  0  0  0  0  0  0  0  0  0  0  0
    1.4289   -3.3000    0.0000 H   0  0  0  0  0  0  0  0  0  0  0  0
    1.4289   -4.1250    0.0000 C   0  0  0  0  0  0  0  0  0  0  0  0
    2.2042   -4.4072    0.0000 H   0  0  0  0  0  0  0  0  0  0  0  0
    2.2042   -3.8428    0.0000 H   0  0  0  0  0  0  0  0  0  0  0  0
   -2.1434   -5.3625    0.0000 H   0  0  0  0  0  0  0  0  0  0  0  0
   -0.7145   -6.1875    0.0000 H   0  0  0  0  0  0  0  0  0  0  0  0
    1.3184   -6.1875    0.0000 H   0  0  0  0  0  0  0  0  0  0  0  0
    2.1434   -7.0125    0.0000 H   0  0  0  0  0  0  0  0  0  0  0  0
    2.9684   -6.1875    0.0000 H   0  0  0  0  0  0  0  0  0  0  0  0
  1  2  1  0  0  0  0
  2  3  2  0  0  0  0
  2  4  1  0  0  0  0
  4  5  1  0  0  0  0
  5  6  1  0  0  0  0
  5  7  1  0  0  0  0
  5  8  1  0  0  0  0
  8  9  2  0  0  0  0
  9 10  1  0  0  0  0
 10 11  2  0  0  0  0
 11 12  1  0  0  0  0
 11 13  1  0  0  0  0
 13 14  1  0  0  0  0
 13 15  2  0  0  0  0
  8 15  1  0  0  0  0
 15 16  1  0  0  0  0
 16 17  1  0  0  0  0
 17 18  2  0  0  0  0
 17 19  1  0  0  0  0
 19 20  1  0  0  0  0
 20 21  2  0  0  0  0
 21 22  1  0  0  0  0
 21 23  1  0  0  0  0
 23 24  2  0  0  0  0
 24 25  1  0  0  0  0
 24 26  1  0  0  0  0
 26 27  2  0  0  0  0
 27 28  1  0  0  0  0
 28 29  2  0  0  0  0
 29 30  1  0  0  0  0
 30 31  1  0  0  0  0
 30 32  2  0  0  0  0
 20 32  1  0  0  0  0
 26 32  1  0  0  0  0
 29 33  1  0  0  0  0
 28 34  1  0  0  0  0
 27 35  1  0  0  0  0
 19 36  1  0  0  0  0
 16 37  1  0  0  0  0
 16 38  1  0  0  0  0
  4 38  1  0  0  0  0
 38 39  1  0  0  0  0
 38 40  1  0  0  0  0
 10 41  1  0  0  0  0
  9 42  1  0  0  0  0
  1 43  1  0  0  0  0
  1 44  1  0  0  0  0
  1 45  1  0  0  0  0
M  END
> <Potency>
0.383156304505084

> <pIC50>
6.416624024109009

> <Outcome>
Active

> <is_active>
1

$$$$

  Mrv1921 08232120312D          

 43 46  0  0  0  0            999 V2000
    2.1434   -3.7125    0.0000 C   0  0  0  0  0  0  0  0  0  0  0  0
    1.4289   -4.1250    0.0000 N   0  0  0  0  0  0  0  0  0  0  0  0
    1.4289   -4.9500    0.0000 C   0  0  0  0  0  0  0  0  0  0  0  0
    1.8823   -5.6393    0.0000 H   0  0  0  0  0  0  0  0  0  0  0  0
    2.2525   -4.9980    0.0000 H   0  0  0  0  0  0  0  0  0  0  0  0
    0.7145   -5.3625    0.0000 C   0  0  0  0  0  0  0  0  0  0  0  0
    0.3442   -6.0997    0.0000 H   0  0  0  0  0  0  0  0  0  0  0  0
    1.0847   -6.0997    0.0000 H   0  0  0  0  0  0  0  0  0  0  0  0
    0.0000   -4.9500    0.0000 C   0  0  0  0  0  0  0  0  0  0  0  0
   -0.7145   -5.3625    0.0000 C   0  0  0  0  0  0  0  0  0  0  0  0
   -1.4289   -4.9500    0.0000 C   0  0  0  0  0  0  0  0  0  0  0  0
   -1.4289   -4.1250    0.0000 C   0  0  0  0  0  0  0  0  0  0  0  0
   -2.1434   -3.7125    0.0000 Cl  0  0  0  0  0  0  0  0  0  0  0  0
   -0.7145   -3.7125    0.0000 C   0  0  0  0  0  0  0  0  0  0  0  0
   -0.7145   -2.8875    0.0000 H   0  0  0  0  0  0  0  0  0  0  0  0
    0.0000   -4.1250    0.0000 C   0  0  0  0  0  0  0  0  0  0  0  0
    0.7145   -3.7125    0.0000 C   0  0  0  0  0  0  0  0  0  0  0  0
    0.7145   -2.8875    0.0000 C   0  0  0  0  0  0  0  0  0  0  0  0
    0.0000   -2.4750    0.0000 O   0  0  0  0  0  0  0  0  0  0  0  0
    1.4289   -2.4750    0.0000 N   0  0  0  0  0  0  0  0  0  0  0  0
    1.4289   -1.6500    0.0000 C   0  0  0  0  0  0  0  0  0  0  0  0
    0.7145   -1.2375    0.0000 C   0  0  0  0  0  0  0  0  0  0  0  0
    0.0000   -1.6500    0.0000 H   0  0  0  0  0  0  0  0  0  0  0  0
    0.7145   -0.4125    0.0000 N   0  0  0  0  0  0  0  0  0  0  0  0
    1.4289    0.0000    0.0000 C   0  0  0  0  0  0  0  0  0  0  0  0
    1.4289    0.8250    0.0000 H   0  0  0  0  0  0  0  0  0  0  0  0
    2.1434   -0.4125    0.0000 C   0  0  0  0  0  0  0  0  0  0  0  0
    2.8579    0.0000    0.0000 C   0  0  0  0  0  0  0  0  0  0  0  0
    3.5724   -0.4125    0.0000 C   0  0  0  0  0  0  0  0  0  0  0  0
    3.5724   -1.2375    0.0000 C   0  0  0  0  0  0  0  0  0  0  0  0
    2.8579   -1.6500    0.0000 C   0  0  0  0  0  0  0  0  0  0  0  0
    3.3547   -2.3086    0.0000 H   0  0  0  0  0  0  0  0  0  0  0  0
    2.1434   -1.2375    0.0000 C   0  0  0  0  0  0  0  0  0  0  0  0
    4.2868   -1.6500    0.0000 H   0  0  0  0  0  0  0  0  0  0  0  0
    4.2868   -0.0000    0.0000 H   0  0  0  0  0  0  0  0  0  0  0  0
    2.8579    0.8250    0.0000 H   0  0  0  0  0  0  0  0  0  0  0  0
    2.2258   -2.2615    0.0000 H   0  0  0  0  0  0  0  0  0  0  0  0
    1.4289   -3.3000    0.0000 H   0  0  0  0  0  0  0  0  0  0  0  0
   -2.1434   -5.3625    0.0000 H   0  0  0  0  0  0  0  0  0  0  0  0
   -0.7145   -6.1875    0.0000 H   0  0  0  0  0  0  0  0  0  0  0  0
    2.5559   -4.4270    0.0000 H   0  0  0  0  0  0  0  0  0  0  0  0
    2.8579   -3.3000    0.0000 H   0  0  0  0  0  0  0  0  0  0  0  0
    1.7309   -2.9980    0.0000 H   0  0  0  0  0  0  0  0  0  0  0  0
  1  2  1  0  0  0  0
  2  3  1  0  0  0  0
  3  4  1  0  0  0  0
  3  5  1  0  0  0  0
  3  6  1  0  0  0  0
  6  7  1  0  0  0  0
  6  8  1  0  0  0  0
  6  9  1  0  0  0  0
  9 10  2  0  0  0  0
 10 11  1  0  0  0  0
 11 12  2  0  0  0  0
 12 13  1  0  0  0  0
 12 14  1  0  0  0  0
 14 15  1  0  0  0  0
 14 16  2  0  0  0  0
  9 16  1  0  0  0  0
 16 17  1  0  0  0  0
  2 17  1  0  0  0  0
 17 18  1  0  0  0  0
 18 19  2  0  0  0  0
 18 20  1  0  0  0  0
 20 21  1  0  0  0  0
 21 22  2  0  0  0  0
 22 23  1  0  0  0  0
 22 24  1  0  0  0  0
 24 25  2  0  0  0  0
 25 26  1  0  0  0  0
 25 27  1  0  0  0  0
 27 28  2  0  0  0  0
 28 29  1  0  0  0  0
 29 30  2  0  0  0  0
 30 31  1  0  0  0  0
 31 32  1  0  0  0  0
 31 33  2  0  0  0  0
 21 33  1  0  0  0  0
 27 33  1  0  0  0  0
 30 34  1  0  0  0  0
 29 35  1  0  0  0  0
 28 36  1  0  0  0  0
 20 37  1  0  0  0  0
 17 38  1  0  0  0  0
 11 39  1  0  0  0  0
 10 40  1  0  0  0  0
  1 41  1  0  0  0  0
  1 42  1  0  0  0  0
  1 43  1  0  0  0  0
M  END
> <Potency>
3.00283699538179

> <pIC50>
5.522468242202483

> <Outcome>
Active

> <is_active>
1

$$$$

  Mrv1921 08232120312D          

 63 67  0  0  0  0            999 V2000
    3.4744   -0.6817    0.0000 O   0  0  0  0  0  0  0  0  0  0  0  0
    3.7565   -1.4570    0.0000 C   0  0  0  0  0  0  0  0  0  0  0  0
    4.5690   -1.6002    0.0000 C   0  0  0  0  0  0  0  0  0  0  0  0
    5.0993   -0.9683    0.0000 C   0  0  0  0  0  0  0  0  0  0  0  0
    5.6296   -1.6002    0.0000 C   0  0  0  0  0  0  0  0  0  0  0  0
    6.4421   -1.4570    0.0000 O   0  0  0  0  0  0  0  0  0  0  0  0
    5.3474   -2.3755    0.0000 N   0  0  0  0  0  0  0  0  0  0  0  0
    5.8777   -3.0075    0.0000 C   0  0  0  0  0  0  0  0  0  0  0  0
    6.6902   -2.8642    0.0000 C   0  0  0  0  0  0  0  0  0  0  0  0
    6.9724   -2.0890    0.0000 H   0  0  0  0  0  0  0  0  0  0  0  0
    7.2205   -3.4962    0.0000 N   0  0  0  0  0  0  0  0  0  0  0  0
    6.9383   -4.2715    0.0000 C   0  0  0  0  0  0  0  0  0  0  0  0
    7.4686   -4.9034    0.0000 H   0  0  0  0  0  0  0  0  0  0  0  0
    6.1259   -4.4147    0.0000 C   0  0  0  0  0  0  0  0  0  0  0  0
    5.8437   -5.1900    0.0000 C   0  0  0  0  0  0  0  0  0  0  0  0
    5.0312   -5.3332    0.0000 C   0  0  0  0  0  0  0  0  0  0  0  0
    4.5009   -4.7012    0.0000 C   0  0  0  0  0  0  0  0  0  0  0  0
    4.7831   -3.9260    0.0000 C   0  0  0  0  0  0  0  0  0  0  0  0
    3.9995   -3.6679    0.0000 H   0  0  0  0  0  0  0  0  0  0  0  0
    5.5956   -3.7827    0.0000 C   0  0  0  0  0  0  0  0  0  0  0  0
    3.6885   -4.8445    0.0000 H   0  0  0  0  0  0  0  0  0  0  0  0
    4.7491   -6.1085    0.0000 H   0  0  0  0  0  0  0  0  0  0  0  0
    6.3740   -5.8219    0.0000 H   0  0  0  0  0  0  0  0  0  0  0  0
    5.0177   -3.1318    0.0000 H   0  0  0  0  0  0  0  0  0  0  0  0
    4.3848   -0.5558    0.0000 C   0  0  0  0  0  0  0  0  0  0  0  0
    4.2265   -1.3654    0.0000 H   0  0  0  0  0  0  0  0  0  0  0  0
    5.0993   -0.1433    0.0000 H   0  0  0  0  0  0  0  0  0  0  0  0
    4.3848    0.2692    0.0000 C   0  0  0  0  0  0  0  0  0  0  0  0
    3.9315    0.9585    0.0000 H   0  0  0  0  0  0  0  0  0  0  0  0
    3.5612    0.3172    0.0000 H   0  0  0  0  0  0  0  0  0  0  0  0
    5.0993    0.6817    0.0000 O   0  0  0  0  0  0  0  0  0  0  0  0
    5.8138    0.2692    0.0000 C   0  0  0  0  0  0  0  0  0  0  0  0
    6.5282    0.6817    0.0000 C   0  0  0  0  0  0  0  0  0  0  0  0
    7.2427    0.2692    0.0000 C   0  0  0  0  0  0  0  0  0  0  0  0
    7.2427   -0.5558    0.0000 C   0  0  0  0  0  0  0  0  0  0  0  0
    7.9572   -0.9683    0.0000 Cl  0  0  0  0  0  0  0  0  0  0  0  0
    6.5282   -0.9683    0.0000 C   0  0  0  0  0  0  0  0  0  0  0  0
    7.2040   -1.4415    0.0000 H   0  0  0  0  0  0  0  0  0  0  0  0
    5.8138   -0.5558    0.0000 C   0  0  0  0  0  0  0  0  0  0  0  0
    7.9572    0.6817    0.0000 H   0  0  0  0  0  0  0  0  0  0  0  0
    6.5282    1.5067    0.0000 H   0  0  0  0  0  0  0  0  0  0  0  0
    4.4732   -2.4197    0.0000 H   0  0  0  0  0  0  0  0  0  0  0  0
    5.1691   -2.1664    0.0000 H   0  0  0  0  0  0  0  0  0  0  0  0
    3.2262   -2.0890    0.0000 N   0  0  0  0  0  0  0  0  0  0  0  0
    3.5084   -2.8642    0.0000 C   0  0  0  0  0  0  0  0  0  0  0  0
    4.3327   -2.8985    0.0000 H   0  0  0  0  0  0  0  0  0  0  0  0
    3.9955   -2.1984    0.0000 H   0  0  0  0  0  0  0  0  0  0  0  0
    2.9781   -3.4962    0.0000 C   0  0  0  0  0  0  0  0  0  0  0  0
    2.8823   -4.3156    0.0000 H   0  0  0  0  0  0  0  0  0  0  0  0
    3.5782   -4.0624    0.0000 H   0  0  0  0  0  0  0  0  0  0  0  0
    2.1656   -3.3529    0.0000 O   0  0  0  0  0  0  0  0  0  0  0  0
    1.8835   -2.5777    0.0000 C   0  0  0  0  0  0  0  0  0  0  0  0
    1.2217   -2.0850    0.0000 H   0  0  0  0  0  0  0  0  0  0  0  0
    1.0931   -2.8143    0.0000 H   0  0  0  0  0  0  0  0  0  0  0  0
    2.4138   -1.9457    0.0000 C   0  0  0  0  0  0  0  0  0  0  0  0
    2.1316   -1.1705    0.0000 C   0  0  0  0  0  0  0  0  0  0  0  0
    1.3191   -1.0272    0.0000 C   0  0  0  0  0  0  0  0  0  0  0  0
    0.7888   -1.6592    0.0000 F   0  0  0  0  0  0  0  0  0  0  0  0
    1.0370   -0.2520    0.0000 F   0  0  0  0  0  0  0  0  0  0  0  0
    1.6013   -1.8025    0.0000 H   0  0  0  0  0  0  0  0  0  0  0  0
    2.5441   -0.4560    0.0000 H   0  0  0  0  0  0  0  0  0  0  0  0
    1.9883   -0.3580    0.0000 H   0  0  0  0  0  0  0  0  0  0  0  0
    2.9441   -1.3137    0.0000 H   0  0  0  0  0  0  0  0  0  0  0  0
  1  2  2  0  0  0  0
  2  3  1  0  0  0  0
  3  4  1  0  0  0  0
  4  5  1  0  0  0  0
  5  6  2  0  0  0  0
  5  7  1  0  0  0  0
  7  8  1  0  0  0  0
  8  9  2  0  0  0  0
  9 10  1  0  0  0  0
  9 11  1  0  0  0  0
 11 12  2  0  0  0  0
 12 13  1  0  0  0  0
 12 14  1  0  0  0  0
 14 15  2  0  0  0  0
 15 16  1  0  0  0  0
 16 17  2  0  0  0  0
 17 18  1  0  0  0  0
 18 19  1  0  0  0  0
 18 20  2  0  0  0  0
  8 20  1  0  0  0  0
 14 20  1  0  0  0  0
 17 21  1  0  0  0  0
 16 22  1  0  0  0  0
 15 23  1  0  0  0  0
  7 24  1  0  0  0  0
  4 25  1  0  0  0  0
 25 26  1  0  0  0  0
 25 27  1  0  0  0  0
 25 28  1  0  0  0  0
 28 29  1  0  0  0  0
 28 30  1  0  0  0  0
 28 31  1  0  0  0  0
 31 32  1  0  0  0  0
 32 33  2  0  0  0  0
 33 34  1  0  0  0  0
 34 35  2  0  0  0  0
 35 36  1  0  0  0  0
 35 37  1  0  0  0  0
 37 38  1  0  0  0  0
 37 39  2  0  0  0  0
  4 39  1  0  0  0  0
 32 39  1  0  0  0  0
 34 40  1  0  0  0  0
 33 41  1  0  0  0  0
  3 42  1  0  0  0  0
  3 43  1  0  0  0  0
  2 44  1  0  0  0  0
 44 45  1  0  0  0  0
 45 46  1  0  0  0  0
 45 47  1  0  0  0  0
 45 48  1  0  0  0  0
 48 49  1  0  0  0  0
 48 50  1  0  0  0  0
 48 51  1  0  0  0  0
 51 52  1  0  0  0  0
 52 53  1  0  0  0  0
 52 54  1  0  0  0  0
 52 55  1  0  0  0  0
 44 55  1  0  0  0  0
 55 56  1  0  0  0  0
 56 57  1  0  0  0  0
 57 58  1  0  0  0  0
 57 59  1  0  0  0  0
 57 60  1  0  0  0  0
 56 61  1  0  0  0  0
 56 62  1  0  0  0  0
 55 63  1  0  0  0  0
M  END
> <Potency>
9.8377132482285

> <pIC50>
5.007105840500716

> <Outcome>
Active

> <is_active>
1

$$$$

  Mrv1921 08232120312D          

 46 48  0  0  0  0            999 V2000
    2.1434   -4.5375    0.0000 C   0  0  0  0  0  0  0  0  0  0  0  0
    2.1434   -3.7125    0.0000 C   0  0  0  0  0  0  0  0  0  0  0  0
    1.3184   -3.7125    0.0000 N   0  0  0  0  0  0  0  0  0  0  0  0
    0.9059   -4.4270    0.0000 C   0  0  0  0  0  0  0  0  0  0  0  0
    1.3184   -5.1414    0.0000 O   0  0  0  0  0  0  0  0  0  0  0  0
    0.0809   -4.4270    0.0000 C   0  0  0  0  0  0  0  0  0  0  0  0
   -0.3316   -3.7125    0.0000 N   0  0  0  0  0  0  0  0  0  0  0  0
    0.0809   -2.9980    0.0000 H   0  0  0  0  0  0  0  0  0  0  0  0
   -1.1566   -3.7125    0.0000 H   0  0  0  0  0  0  0  0  0  0  0  0
   -0.6084   -4.8803    0.0000 H   0  0  0  0  0  0  0  0  0  0  0  0
    0.0329   -5.2506    0.0000 H   0  0  0  0  0  0  0  0  0  0  0  0
    0.9059   -2.9980    0.0000 H   0  0  0  0  0  0  0  0  0  0  0  0
    2.1434   -2.8875    0.0000 C   0  0  0  0  0  0  0  0  0  0  0  0
    2.8579   -2.4750    0.0000 O   0  0  0  0  0  0  0  0  0  0  0  0
    1.4289   -2.4750    0.0000 N   0  0  0  0  0  0  0  0  0  0  0  0
    1.4289   -1.6500    0.0000 C   0  0  0  0  0  0  0  0  0  0  0  0
    0.7145   -1.2375    0.0000 C   0  0  0  0  0  0  0  0  0  0  0  0
   -0.1103   -1.2162    0.0000 H   0  0  0  0  0  0  0  0  0  0  0  0
    0.7145   -0.4125    0.0000 N   0  0  0  0  0  0  0  0  0  0  0  0
    1.4289    0.0000    0.0000 C   0  0  0  0  0  0  0  0  0  0  0  0
    1.4289    0.8250    0.0000 H   0  0  0  0  0  0  0  0  0  0  0  0
    2.1434   -0.4125    0.0000 C   0  0  0  0  0  0  0  0  0  0  0  0
    2.8579    0.0000    0.0000 C   0  0  0  0  0  0  0  0  0  0  0  0
    3.5724   -0.4125    0.0000 C   0  0  0  0  0  0  0  0  0  0  0  0
    3.5724   -1.2375    0.0000 C   0  0  0  0  0  0  0  0  0  0  0  0
    2.8579   -1.6500    0.0000 C   0  0  0  0  0  0  0  0  0  0  0  0
    2.1434   -2.0625    0.0000 H   0  0  0  0  0  0  0  0  0  0  0  0
    2.1434   -1.2375    0.0000 C   0  0  0  0  0  0  0  0  0  0  0  0
    4.2868   -1.6500    0.0000 H   0  0  0  0  0  0  0  0  0  0  0  0
    4.2868   -0.0000    0.0000 H   0  0  0  0  0  0  0  0  0  0  0  0
    2.8579    0.8250    0.0000 H   0  0  0  0  0  0  0  0  0  0  0  0
    0.6667   -2.1593    0.0000 H   0  0  0  0  0  0  0  0  0  0  0  0
    2.9684   -3.7125    0.0000 C   0  0  0  0  0  0  0  0  0  0  0  0
    3.3809   -4.4270    0.0000 C   0  0  0  0  0  0  0  0  0  0  0  0
    3.4886   -5.2449    0.0000 H   0  0  0  0  0  0  0  0  0  0  0  0
    4.2059   -4.4270    0.0000 C   0  0  0  0  0  0  0  0  0  0  0  0
    4.6184   -5.1414    0.0000 H   0  0  0  0  0  0  0  0  0  0  0  0
    4.6184   -3.7125    0.0000 C   0  0  0  0  0  0  0  0  0  0  0  0
    5.4434   -3.7125    0.0000 Cl  0  0  0  0  0  0  0  0  0  0  0  0
    4.2059   -2.9980    0.0000 C   0  0  0  0  0  0  0  0  0  0  0  0
    4.6184   -2.2836    0.0000 Cl  0  0  0  0  0  0  0  0  0  0  0  0
    3.3809   -2.9980    0.0000 C   0  0  0  0  0  0  0  0  0  0  0  0
    3.6966   -2.2358    0.0000 H   0  0  0  0  0  0  0  0  0  0  0  0
    1.3184   -4.5375    0.0000 H   0  0  0  0  0  0  0  0  0  0  0  0
    2.1434   -5.3625    0.0000 H   0  0  0  0  0  0  0  0  0  0  0  0
    2.9684   -4.5375    0.0000 H   0  0  0  0  0  0  0  0  0  0  0  0
  1  2  1  0  0  0  0
  2  3  1  0  0  0  0
  3  4  1  0  0  0  0
  4  5  2  0  0  0  0
  4  6  1  0  0  0  0
  6  7  1  0  0  0  0
  7  8  1  0  0  0  0
  7  9  1  0  0  0  0
  6 10  1  0  0  0  0
  6 11  1  0  0  0  0
  3 12  1  0  0  0  0
  2 13  1  0  0  0  0
 13 14  2  0  0  0  0
 13 15  1  0  0  0  0
 15 16  1  0  0  0  0
 16 17  2  0  0  0  0
 17 18  1  0  0  0  0
 17 19  1  0  0  0  0
 19 20  2  0  0  0  0
 20 21  1  0  0  0  0
 20 22  1  0  0  0  0
 22 23  2  0  0  0  0
 23 24  1  0  0  0  0
 24 25  2  0  0  0  0
 25 26  1  0  0  0  0
 26 27  1  0  0  0  0
 26 28  2  0  0  0  0
 16 28  1  0  0  0  0
 22 28  1  0  0  0  0
 25 29  1  0  0  0  0
 24 30  1  0  0  0  0
 23 31  1  0  0  0  0
 15 32  1  0  0  0  0
  2 33  1  0  0  0  0
 33 34  2  0  0  0  0
 34 35  1  0  0  0  0
 34 36  1  0  0  0  0
 36 37  1  0  0  0  0
 36 38  2  0  0  0  0
 38 39  1  0  0  0  0
 38 40  1  0  0  0  0
 40 41  1  0  0  0  0
 40 42  2  0  0  0  0
 33 42  1  0  0  0  0
 42 43  1  0  0  0  0
  1 44  1  0  0  0  0
  1 45  1  0  0  0  0
  1 46  1  0  0  0  0
M  END
> <Potency>
3.37560319571068

> <pIC50>
5.471648610636902

> <Outcome>
Active

> <is_active>
1

$$$$

  Mrv1921 08232120312D          

 54 57  0  0  0  0            999 V2000
   -2.1434   -6.1875    0.0000 C   0  0  0  0  0  0  0  0  0  0  0  0
   -2.1434   -5.3625    0.0000 N   0  0  0  0  0  0  0  0  0  0  0  0
   -2.8579   -4.9500    0.0000 C   0  0  0  0  0  0  0  0  0  0  0  0
   -2.4454   -4.2355    0.0000 H   0  0  0  0  0  0  0  0  0  0  0  0
   -3.5724   -4.5375    0.0000 H   0  0  0  0  0  0  0  0  0  0  0  0
   -3.2704   -5.6645    0.0000 H   0  0  0  0  0  0  0  0  0  0  0  0
   -1.4289   -4.9500    0.0000 C   0  0  0  0  0  0  0  0  0  0  0  0
   -1.4289   -4.1250    0.0000 C   0  0  0  0  0  0  0  0  0  0  0  0
   -2.1434   -3.7125    0.0000 H   0  0  0  0  0  0  0  0  0  0  0  0
   -0.7145   -3.7125    0.0000 C   0  0  0  0  0  0  0  0  0  0  0  0
   -0.7145   -2.8875    0.0000 H   0  0  0  0  0  0  0  0  0  0  0  0
    0.0000   -4.1250    0.0000 C   0  0  0  0  0  0  0  0  0  0  0  0
    0.7145   -3.7125    0.0000 N   0  0  0  0  0  0  0  0  0  0  0  0
    1.4289   -4.1250    0.0000 C   0  0  0  0  0  0  0  0  0  0  0  0
    1.4289   -4.9500    0.0000 C   0  0  0  0  0  0  0  0  0  0  0  0
    2.1434   -5.3625    0.0000 C   0  0  0  0  0  0  0  0  0  0  0  0
    2.8579   -4.9500    0.0000 H   0  0  0  0  0  0  0  0  0  0  0  0
    2.1434   -6.1875    0.0000 C   0  0  0  0  0  0  0  0  0  0  0  0
    2.8579   -6.6000    0.0000 H   0  0  0  0  0  0  0  0  0  0  0  0
    1.4289   -6.6000    0.0000 C   0  0  0  0  0  0  0  0  0  0  0  0
    1.4289   -7.4250    0.0000 H   0  0  0  0  0  0  0  0  0  0  0  0
    0.7145   -6.1875    0.0000 C   0  0  0  0  0  0  0  0  0  0  0  0
    0.0000   -6.6000    0.0000 Cl  0  0  0  0  0  0  0  0  0  0  0  0
    0.7145   -5.3625    0.0000 C   0  0  0  0  0  0  0  0  0  0  0  0
    0.7145   -4.5375    0.0000 H   0  0  0  0  0  0  0  0  0  0  0  0
    2.2525   -4.0770    0.0000 H   0  0  0  0  0  0  0  0  0  0  0  0
    1.8823   -3.4357    0.0000 H   0  0  0  0  0  0  0  0  0  0  0  0
    0.7145   -2.8875    0.0000 C   0  0  0  0  0  0  0  0  0  0  0  0
    0.0000   -2.4750    0.0000 O   0  0  0  0  0  0  0  0  0  0  0  0
    1.4289   -2.4750    0.0000 C   0  0  0  0  0  0  0  0  0  0  0  0
    1.4289   -1.6500    0.0000 C   0  0  0  0  0  0  0  0  0  0  0  0
    0.7145   -1.2375    0.0000 C   0  0  0  0  0  0  0  0  0  0  0  0
    0.0000   -1.6500    0.0000 H   0  0  0  0  0  0  0  0  0  0  0  0
    0.7145   -0.4125    0.0000 N   0  0  0  0  0  0  0  0  0  0  0  0
    1.4289    0.0000    0.0000 C   0  0  0  0  0  0  0  0  0  0  0  0
    1.4289    0.8250    0.0000 H   0  0  0  0  0  0  0  0  0  0  0  0
    2.1434   -0.4125    0.0000 C   0  0  0  0  0  0  0  0  0  0  0  0
    2.8579    0.0000    0.0000 C   0  0  0  0  0  0  0  0  0  0  0  0
    3.5724   -0.4125    0.0000 C   0  0  0  0  0  0  0  0  0  0  0  0
    3.5724   -1.2375    0.0000 C   0  0  0  0  0  0  0  0  0  0  0  0
    2.8579   -1.6500    0.0000 C   0  0  0  0  0  0  0  0  0  0  0  0
    2.8579   -2.4750    0.0000 H   0  0  0  0  0  0  0  0  0  0  0  0
    2.1434   -1.2375    0.0000 C   0  0  0  0  0  0  0  0  0  0  0  0
    4.2868   -1.6500    0.0000 H   0  0  0  0  0  0  0  0  0  0  0  0
    4.2868   -0.0000    0.0000 H   0  0  0  0  0  0  0  0  0  0  0  0
    2.8579    0.8250    0.0000 H   0  0  0  0  0  0  0  0  0  0  0  0
    1.8823   -3.1643    0.0000 H   0  0  0  0  0  0  0  0  0  0  0  0
    2.2525   -2.5230    0.0000 H   0  0  0  0  0  0  0  0  0  0  0  0
    0.0000   -4.9500    0.0000 N   0  0  0  0  0  0  0  0  0  0  0  0
   -0.7145   -5.3625    0.0000 C   0  0  0  0  0  0  0  0  0  0  0  0
   -0.7145   -6.1875    0.0000 H   0  0  0  0  0  0  0  0  0  0  0  0
   -2.9684   -6.1875    0.0000 H   0  0  0  0  0  0  0  0  0  0  0  0
   -2.1434   -7.0125    0.0000 H   0  0  0  0  0  0  0  0  0  0  0  0
   -1.3184   -6.1875    0.0000 H   0  0  0  0  0  0  0  0  0  0  0  0
  1  2  1  0  0  0  0
  2  3  1  0  0  0  0
  3  4  1  0  0  0  0
  3  5  1  0  0  0  0
  3  6  1  0  0  0  0
  2  7  1  0  0  0  0
  7  8  2  0  0  0  0
  8  9  1  0  0  0  0
  8 10  1  0  0  0  0
 10 11  1  0  0  0  0
 10 12  2  0  0  0  0
 12 13  1  0  0  0  0
 13 14  1  0  0  0  0
 14 15  1  0  0  0  0
 15 16  2  0  0  0  0
 16 17  1  0  0  0  0
 16 18  1  0  0  0  0
 18 19  1  0  0  0  0
 18 20  2  0  0  0  0
 20 21  1  0  0  0  0
 20 22  1  0  0  0  0
 22 23  1  0  0  0  0
 22 24  2  0  0  0  0
 15 24  1  0  0  0  0
 24 25  1  0  0  0  0
 14 26  1  0  0  0  0
 14 27  1  0  0  0  0
 13 28  1  0  0  0  0
 28 29  2  0  0  0  0
 28 30  1  0  0  0  0
 30 31  1  0  0  0  0
 31 32  2  0  0  0  0
 32 33  1  0  0  0  0
 32 34  1  0  0  0  0
 34 35  2  0  0  0  0
 35 36  1  0  0  0  0
 35 37  1  0  0  0  0
 37 38  2  0  0  0  0
 38 39  1  0  0  0  0
 39 40  2  0  0  0  0
 40 41  1  0  0  0  0
 41 42  1  0  0  0  0
 41 43  2  0  0  0  0
 31 43  1  0  0  0  0
 37 43  1  0  0  0  0
 40 44  1  0  0  0  0
 39 45  1  0  0  0  0
 38 46  1  0  0  0  0
 30 47  1  0  0  0  0
 30 48  1  0  0  0  0
 12 49  1  0  0  0  0
 49 50  2  0  0  0  0
  7 50  1  0  0  0  0
 50 51  1  0  0  0  0
  1 52  1  0  0  0  0
  1 53  1  0  0  0  0
  1 54  1  0  0  0  0
M  END
> <Potency>
0.28681596928638

> <pIC50>
6.542396671763379

> <Outcome>
Active

> <is_active>
1

$$$$

  Mrv1921 08232120312D          

 39 42  0  0  0  0            999 V2000
    2.1434   -2.8875    0.0000 O   0  0  0  0  0  0  0  0  0  0  0  0
    1.4289   -2.4750    0.0000 C   0  0  0  0  0  0  0  0  0  0  0  0
    0.7145   -2.8875    0.0000 C   0  0  0  0  0  0  0  0  0  0  0  0
    0.7145   -3.7125    0.0000 C   0  0  0  0  0  0  0  0  0  0  0  0
    1.4289   -4.1250    0.0000 C   0  0  0  0  0  0  0  0  0  0  0  0
    2.1434   -3.7125    0.0000 H   0  0  0  0  0  0  0  0  0  0  0  0
    1.4289   -4.9500    0.0000 N   0  0  0  0  0  0  0  0  0  0  0  0
    0.7145   -5.3625    0.0000 C   0  0  0  0  0  0  0  0  0  0  0  0
    0.7145   -6.1875    0.0000 H   0  0  0  0  0  0  0  0  0  0  0  0
    0.0000   -4.9500    0.0000 C   0  0  0  0  0  0  0  0  0  0  0  0
   -0.7145   -5.3625    0.0000 C   0  0  0  0  0  0  0  0  0  0  0  0
   -1.4289   -4.9500    0.0000 C   0  0  0  0  0  0  0  0  0  0  0  0
   -1.4289   -4.1250    0.0000 C   0  0  0  0  0  0  0  0  0  0  0  0
   -0.7145   -3.7125    0.0000 C   0  0  0  0  0  0  0  0  0  0  0  0
   -0.7145   -2.8875    0.0000 H   0  0  0  0  0  0  0  0  0  0  0  0
    0.0000   -4.1250    0.0000 C   0  0  0  0  0  0  0  0  0  0  0  0
   -2.1434   -3.7125    0.0000 H   0  0  0  0  0  0  0  0  0  0  0  0
   -2.1434   -5.3625    0.0000 H   0  0  0  0  0  0  0  0  0  0  0  0
   -0.7145   -6.1875    0.0000 H   0  0  0  0  0  0  0  0  0  0  0  0
    0.2611   -2.1982    0.0000 H   0  0  0  0  0  0  0  0  0  0  0  0
   -0.1091   -2.8395    0.0000 H   0  0  0  0  0  0  0  0  0  0  0  0
    1.4289   -1.6500    0.0000 N   0  0  0  0  0  0  0  0  0  0  0  0
    0.7145   -1.2375    0.0000 C   0  0  0  0  0  0  0  0  0  0  0  0
   -0.1091   -1.2855    0.0000 H   0  0  0  0  0  0  0  0  0  0  0  0
    0.2611   -1.9268    0.0000 H   0  0  0  0  0  0  0  0  0  0  0  0
    0.7145   -0.4125    0.0000 C   0  0  0  0  0  0  0  0  0  0  0  0
    0.2611    0.2768    0.0000 H   0  0  0  0  0  0  0  0  0  0  0  0
   -0.1091   -0.3645    0.0000 H   0  0  0  0  0  0  0  0  0  0  0  0
    1.4289    0.0000    0.0000 O   0  0  0  0  0  0  0  0  0  0  0  0
    2.1434   -0.4125    0.0000 C   0  0  0  0  0  0  0  0  0  0  0  0
    2.8579    0.0000    0.0000 C   0  0  0  0  0  0  0  0  0  0  0  0
    3.5724   -0.4125    0.0000 C   0  0  0  0  0  0  0  0  0  0  0  0
    3.5724   -1.2375    0.0000 C   0  0  0  0  0  0  0  0  0  0  0  0
    4.2868   -1.6500    0.0000 Cl  0  0  0  0  0  0  0  0  0  0  0  0
    2.8579   -1.6500    0.0000 C   0  0  0  0  0  0  0  0  0  0  0  0
    2.8579   -2.4750    0.0000 H   0  0  0  0  0  0  0  0  0  0  0  0
    2.1434   -1.2375    0.0000 C   0  0  0  0  0  0  0  0  0  0  0  0
    4.2868   -0.0000    0.0000 H   0  0  0  0  0  0  0  0  0  0  0  0
    2.8579    0.8250    0.0000 H   0  0  0  0  0  0  0  0  0  0  0  0
  1  2  2  0  0  0  0
  2  3  1  0  0  0  0
  3  4  1  0  0  0  0
  4  5  2  0  0  0  0
  5  6  1  0  0  0  0
  5  7  1  0  0  0  0
  7  8  2  0  0  0  0
  8  9  1  0  0  0  0
  8 10  1  0  0  0  0
 10 11  2  0  0  0  0
 11 12  1  0  0  0  0
 12 13  2  0  0  0  0
 13 14  1  0  0  0  0
 14 15  1  0  0  0  0
 14 16  2  0  0  0  0
  4 16  1  0  0  0  0
 10 16  1  0  0  0  0
 13 17  1  0  0  0  0
 12 18  1  0  0  0  0
 11 19  1  0  0  0  0
  3 20  1  0  0  0  0
  3 21  1  0  0  0  0
  2 22  1  0  0  0  0
 22 23  1  0  0  0  0
 23 24  1  0  0  0  0
 23 25  1  0  0  0  0
 23 26  1  0  0  0  0
 26 27  1  0  0  0  0
 26 28  1  0  0  0  0
 26 29  1  0  0  0  0
 29 30  1  0  0  0  0
 30 31  2  0  0  0  0
 31 32  1  0  0  0  0
 32 33  2  0  0  0  0
 33 34  1  0  0  0  0
 33 35  1  0  0  0  0
 35 36  1  0  0  0  0
 35 37  2  0  0  0  0
 22 37  1  0  0  0  0
 30 37  1  0  0  0  0
 32 38  1  0  0  0  0
 31 39  1  0  0  0  0
M  END
> <Potency>
6.04725234461936

> <pIC50>
5.218441908425788

> <Outcome>
Active

> <is_active>
1

$$$$

  Mrv1921 08232120312D          

 56 60  0  0  0  0            999 V2000
    2.1434   -2.8875    0.0000 O   0  0  0  0  0  0  0  0  0  0  0  0
    1.4289   -2.4750    0.0000 C   0  0  0  0  0  0  0  0  0  0  0  0
    0.7145   -2.8875    0.0000 N   0  0  0  0  0  0  0  0  0  0  0  0
    0.7145   -3.7125    0.0000 C   0  0  0  0  0  0  0  0  0  0  0  0
    1.4289   -4.1250    0.0000 C   0  0  0  0  0  0  0  0  0  0  0  0
    2.1434   -3.7125    0.0000 H   0  0  0  0  0  0  0  0  0  0  0  0
    1.4289   -4.9500    0.0000 N   0  0  0  0  0  0  0  0  0  0  0  0
    0.7145   -5.3625    0.0000 C   0  0  0  0  0  0  0  0  0  0  0  0
    0.7145   -6.1875    0.0000 H   0  0  0  0  0  0  0  0  0  0  0  0
    0.0000   -4.9500    0.0000 C   0  0  0  0  0  0  0  0  0  0  0  0
   -0.7145   -5.3625    0.0000 C   0  0  0  0  0  0  0  0  0  0  0  0
   -1.4289   -4.9500    0.0000 C   0  0  0  0  0  0  0  0  0  0  0  0
   -2.1434   -5.3625    0.0000 C   0  0  0  0  0  0  0  0  0  0  0  0
   -2.8579   -4.9500    0.0000 N   0  0  0  0  0  0  0  0  0  0  0  0
   -3.5724   -5.3625    0.0000 C   0  0  0  0  0  0  0  0  0  0  0  0
   -3.9426   -6.0997    0.0000 H   0  0  0  0  0  0  0  0  0  0  0  0
   -3.2021   -6.0997    0.0000 H   0  0  0  0  0  0  0  0  0  0  0  0
   -4.2868   -4.9500    0.0000 C   0  0  0  0  0  0  0  0  0  0  0  0
   -5.1104   -4.9980    0.0000 H   0  0  0  0  0  0  0  0  0  0  0  0
   -4.7402   -5.6393    0.0000 H   0  0  0  0  0  0  0  0  0  0  0  0
   -4.2868   -4.1250    0.0000 N   0  0  0  0  0  0  0  0  0  0  0  0
   -5.0013   -3.7125    0.0000 H   0  0  0  0  0  0  0  0  0  0  0  0
   -3.5724   -3.7125    0.0000 C   0  0  0  0  0  0  0  0  0  0  0  0
   -3.2021   -2.9753    0.0000 H   0  0  0  0  0  0  0  0  0  0  0  0
   -3.9426   -2.9753    0.0000 H   0  0  0  0  0  0  0  0  0  0  0  0
   -2.8579   -4.1250    0.0000 C   0  0  0  0  0  0  0  0  0  0  0  0
   -2.0343   -4.0770    0.0000 H   0  0  0  0  0  0  0  0  0  0  0  0
   -2.4045   -3.4357    0.0000 H   0  0  0  0  0  0  0  0  0  0  0  0
   -2.5137   -6.0997    0.0000 H   0  0  0  0  0  0  0  0  0  0  0  0
   -1.7732   -6.0997    0.0000 H   0  0  0  0  0  0  0  0  0  0  0  0
   -1.4289   -4.1250    0.0000 C   0  0  0  0  0  0  0  0  0  0  0  0
   -0.7145   -3.7125    0.0000 C   0  0  0  0  0  0  0  0  0  0  0  0
   -0.7145   -2.8875    0.0000 H   0  0  0  0  0  0  0  0  0  0  0  0
    0.0000   -4.1250    0.0000 C   0  0  0  0  0  0  0  0  0  0  0  0
   -1.6108   -3.3203    0.0000 H   0  0  0  0  0  0  0  0  0  0  0  0
   -0.7145   -6.1875    0.0000 H   0  0  0  0  0  0  0  0  0  0  0  0
    0.0000   -2.4750    0.0000 H   0  0  0  0  0  0  0  0  0  0  0  0
    1.4289   -1.6500    0.0000 C   0  0  0  0  0  0  0  0  0  0  0  0
    0.7145   -1.2375    0.0000 C   0  0  0  0  0  0  0  0  0  0  0  0
   -0.1091   -1.2855    0.0000 H   0  0  0  0  0  0  0  0  0  0  0  0
    0.2611   -1.9268    0.0000 H   0  0  0  0  0  0  0  0  0  0  0  0
    0.7145   -0.4125    0.0000 C   0  0  0  0  0  0  0  0  0  0  0  0
    0.2611    0.2768    0.0000 H   0  0  0  0  0  0  0  0  0  0  0  0
   -0.1091   -0.3645    0.0000 H   0  0  0  0  0  0  0  0  0  0  0  0
    1.4289    0.0000    0.0000 O   0  0  0  0  0  0  0  0  0  0  0  0
    2.1434   -0.4125    0.0000 C   0  0  0  0  0  0  0  0  0  0  0  0
    2.8579    0.0000    0.0000 C   0  0  0  0  0  0  0  0  0  0  0  0
    3.5724   -0.4125    0.0000 C   0  0  0  0  0  0  0  0  0  0  0  0
    3.5724   -1.2375    0.0000 C   0  0  0  0  0  0  0  0  0  0  0  0
    4.2868   -1.6500    0.0000 Cl  0  0  0  0  0  0  0  0  0  0  0  0
    2.8579   -1.6500    0.0000 C   0  0  0  0  0  0  0  0  0  0  0  0
    3.2704   -2.3645    0.0000 H   0  0  0  0  0  0  0  0  0  0  0  0
    2.1434   -1.2375    0.0000 C   0  0  0  0  0  0  0  0  0  0  0  0
    4.2868   -0.0000    0.0000 H   0  0  0  0  0  0  0  0  0  0  0  0
    2.8579    0.8250    0.0000 H   0  0  0  0  0  0  0  0  0  0  0  0
    2.1434   -2.0625    0.0000 H   0  0  0  0  0  0  0  0  0  0  0  0
  1  2  2  0  0  0  0
  2  3  1  0  0  0  0
  3  4  1  0  0  0  0
  4  5  2  0  0  0  0
  5  6  1  0  0  0  0
  5  7  1  0  0  0  0
  7  8  2  0  0  0  0
  8  9  1  0  0  0  0
  8 10  1  0  0  0  0
 10 11  2  0  0  0  0
 11 12  1  0  0  0  0
 12 13  1  0  0  0  0
 13 14  1  0  0  0  0
 14 15  1  0  0  0  0
 15 16  1  0  0  0  0
 15 17  1  0  0  0  0
 15 18  1  0  0  0  0
 18 19  1  0  0  0  0
 18 20  1  0  0  0  0
 18 21  1  0  0  0  0
 21 22  1  0  0  0  0
 21 23  1  0  0  0  0
 23 24  1  0  0  0  0
 23 25  1  0  0  0  0
 23 26  1  0  0  0  0
 14 26  1  0  0  0  0
 26 27  1  0  0  0  0
 26 28  1  0  0  0  0
 13 29  1  0  0  0  0
 13 30  1  0  0  0  0
 12 31  2  0  0  0  0
 31 32  1  0  0  0  0
 32 33  1  0  0  0  0
 32 34  2  0  0  0  0
  4 34  1  0  0  0  0
 10 34  1  0  0  0  0
 31 35  1  0  0  0  0
 11 36  1  0  0  0  0
  3 37  1  0  0  0  0
  2 38  1  0  0  0  0
 38 39  1  0  0  0  0
 39 40  1  0  0  0  0
 39 41  1  0  0  0  0
 39 42  1  0  0  0  0
 42 43  1  0  0  0  0
 42 44  1  0  0  0  0
 42 45  1  0  0  0  0
 45 46  1  0  0  0  0
 46 47  2  0  0  0  0
 47 48  1  0  0  0  0
 48 49  2  0  0  0  0
 49 50  1  0  0  0  0
 49 51  1  0  0  0  0
 51 52  1  0  0  0  0
 51 53  2  0  0  0  0
 38 53  1  0  0  0  0
 46 53  1  0  0  0  0
 48 54  1  0  0  0  0
 47 55  1  0  0  0  0
 38 56  1  0  0  0  0
M  END
> <Potency>
1.83352979729621

> <pIC50>
5.736712027783462

> <Outcome>
Active

> <is_active>
1

$$$$

  Mrv1921 08232120312D          

 39 42  0  0  0  0            999 V2000
    5.0013   -1.2375    0.0000 O   0  0  0  0  0  0  0  0  0  0  0  0
    5.0013   -0.4125    0.0000 C   0  0  0  0  0  0  0  0  0  0  0  0
    4.2868    0.0000    0.0000 N   0  0  0  0  0  0  0  0  0  0  0  0
    3.5724   -0.4125    0.0000 H   0  0  0  0  0  0  0  0  0  0  0  0
    4.2868    0.8250    0.0000 C   0  0  0  0  0  0  0  0  0  0  0  0
    3.8335    1.5143    0.0000 H   0  0  0  0  0  0  0  0  0  0  0  0
    3.4632    0.8730    0.0000 H   0  0  0  0  0  0  0  0  0  0  0  0
    5.0013    1.2375    0.0000 C   0  0  0  0  0  0  0  0  0  0  0  0
    5.0013    2.0625    0.0000 C   0  0  0  0  0  0  0  0  0  0  0  0
    4.2868    2.4750    0.0000 O   0  0  0  0  0  0  0  0  0  0  0  0
    5.7158    2.4750    0.0000 N   0  0  0  0  0  0  0  0  0  0  0  0
    5.7158    3.3000    0.0000 C   0  0  0  0  0  0  0  0  0  0  0  0
    5.0013    3.7125    0.0000 C   0  0  0  0  0  0  0  0  0  0  0  0
    4.2868    3.3000    0.0000 H   0  0  0  0  0  0  0  0  0  0  0  0
    5.0013    4.5375    0.0000 N   0  0  0  0  0  0  0  0  0  0  0  0
    5.7158    4.9500    0.0000 C   0  0  0  0  0  0  0  0  0  0  0  0
    5.7158    5.7750    0.0000 H   0  0  0  0  0  0  0  0  0  0  0  0
    6.4302    4.5375    0.0000 C   0  0  0  0  0  0  0  0  0  0  0  0
    7.1447    4.9500    0.0000 C   0  0  0  0  0  0  0  0  0  0  0  0
    7.8592    4.5375    0.0000 C   0  0  0  0  0  0  0  0  0  0  0  0
    7.8592    3.7125    0.0000 C   0  0  0  0  0  0  0  0  0  0  0  0
    7.1447    3.3000    0.0000 C   0  0  0  0  0  0  0  0  0  0  0  0
    7.1447    2.4750    0.0000 H   0  0  0  0  0  0  0  0  0  0  0  0
    6.4302    3.7125    0.0000 C   0  0  0  0  0  0  0  0  0  0  0  0
    8.5737    3.3000    0.0000 H   0  0  0  0  0  0  0  0  0  0  0  0
    8.5737    4.9500    0.0000 H   0  0  0  0  0  0  0  0  0  0  0  0
    7.1447    5.7750    0.0000 H   0  0  0  0  0  0  0  0  0  0  0  0
    6.5408    2.4750    0.0000 H   0  0  0  0  0  0  0  0  0  0  0  0
    5.7158    1.6500    0.0000 H   0  0  0  0  0  0  0  0  0  0  0  0
    5.7158    0.8250    0.0000 C   0  0  0  0  0  0  0  0  0  0  0  0
    6.4302    1.2375    0.0000 C   0  0  0  0  0  0  0  0  0  0  0  0
    7.1447    0.8250    0.0000 C   0  0  0  0  0  0  0  0  0  0  0  0
    7.8592    1.2375    0.0000 Cl  0  0  0  0  0  0  0  0  0  0  0  0
    7.1447    0.0000    0.0000 C   0  0  0  0  0  0  0  0  0  0  0  0
    6.4302   -0.4125    0.0000 C   0  0  0  0  0  0  0  0  0  0  0  0
    6.4302   -1.2375    0.0000 H   0  0  0  0  0  0  0  0  0  0  0  0
    5.7158    0.0000    0.0000 C   0  0  0  0  0  0  0  0  0  0  0  0
    7.8592   -0.4125    0.0000 H   0  0  0  0  0  0  0  0  0  0  0  0
    6.8427    1.9520    0.0000 H   0  0  0  0  0  0  0  0  0  0  0  0
  1  2  2  0  0  0  0
  2  3  1  0  0  0  0
  3  4  1  0  0  0  0
  3  5  1  0  0  0  0
  5  6  1  0  0  0  0
  5  7  1  0  0  0  0
  5  8  1  0  0  0  0
  8  9  1  0  0  0  0
  9 10  2  0  0  0  0
  9 11  1  0  0  0  0
 11 12  1  0  0  0  0
 12 13  2  0  0  0  0
 13 14  1  0  0  0  0
 13 15  1  0  0  0  0
 15 16  2  0  0  0  0
 16 17  1  0  0  0  0
 16 18  1  0  0  0  0
 18 19  2  0  0  0  0
 19 20  1  0  0  0  0
 20 21  2  0  0  0  0
 21 22  1  0  0  0  0
 22 23  1  0  0  0  0
 22 24  2  0  0  0  0
 12 24  1  0  0  0  0
 18 24  1  0  0  0  0
 21 25  1  0  0  0  0
 20 26  1  0  0  0  0
 19 27  1  0  0  0  0
 11 28  1  0  0  0  0
  8 29  1  0  0  0  0
  8 30  1  0  0  0  0
 30 31  2  0  0  0  0
 31 32  1  0  0  0  0
 32 33  1  0  0  0  0
 32 34  2  0  0  0  0
 34 35  1  0  0  0  0
 35 36  1  0  0  0  0
 35 37  2  0  0  0  0
  2 37  1  0  0  0  0
 30 37  1  0  0  0  0
 34 38  1  0  0  0  0
 31 39  1  0  0  0  0
M  END
> <Potency>
0.207981019018527

> <pIC50>
6.6819762982663695

> <Outcome>
Active

> <is_active>
1

$$$$

  Mrv1921 08232120312D          

 44 47  0  0  0  0            999 V2000
    0.0000   -2.4750    0.0000 O   0  0  0  0  0  0  0  0  0  0  0  0
    0.7145   -2.8875    0.0000 C   0  0  0  0  0  0  0  0  0  0  0  0
    0.7145   -3.7125    0.0000 C   0  0  0  0  0  0  0  0  0  0  0  0
    0.0000   -4.1250    0.0000 C   0  0  0  0  0  0  0  0  0  0  0  0
    0.0000   -4.9500    0.0000 C   0  0  0  0  0  0  0  0  0  0  0  0
    0.7145   -5.3625    0.0000 H   0  0  0  0  0  0  0  0  0  0  0  0
   -0.7145   -5.3625    0.0000 C   0  0  0  0  0  0  0  0  0  0  0  0
   -0.7145   -6.1875    0.0000 Cl  0  0  0  0  0  0  0  0  0  0  0  0
   -1.4289   -4.9500    0.0000 C   0  0  0  0  0  0  0  0  0  0  0  0
   -2.1434   -5.3625    0.0000 H   0  0  0  0  0  0  0  0  0  0  0  0
   -1.4289   -4.1250    0.0000 C   0  0  0  0  0  0  0  0  0  0  0  0
   -2.1434   -3.7125    0.0000 C   0  0  0  0  0  0  0  0  0  0  0  0
   -2.8579   -4.1250    0.0000 C   0  0  0  0  0  0  0  0  0  0  0  0
   -2.9441   -4.9455    0.0000 C   0  0  0  0  0  0  0  0  0  0  0  0
   -3.0555   -5.7629    0.0000 H   0  0  0  0  0  0  0  0  0  0  0  0
   -3.7511   -5.1170    0.0000 C   0  0  0  0  0  0  0  0  0  0  0  0
   -4.3962   -5.6313    0.0000 H   0  0  0  0  0  0  0  0  0  0  0  0
   -4.1636   -4.4025    0.0000 N   0  0  0  0  0  0  0  0  0  0  0  0
   -3.6116   -3.7894    0.0000 N   0  0  0  0  0  0  0  0  0  0  0  0
   -3.7831   -2.9825    0.0000 H   0  0  0  0  0  0  0  0  0  0  0  0
   -1.7732   -2.9753    0.0000 H   0  0  0  0  0  0  0  0  0  0  0  0
   -2.5137   -2.9753    0.0000 H   0  0  0  0  0  0  0  0  0  0  0  0
   -0.7145   -3.7125    0.0000 C   0  0  0  0  0  0  0  0  0  0  0  0
   -0.7145   -2.8875    0.0000 H   0  0  0  0  0  0  0  0  0  0  0  0
    1.1678   -4.4018    0.0000 H   0  0  0  0  0  0  0  0  0  0  0  0
    1.5381   -3.7605    0.0000 H   0  0  0  0  0  0  0  0  0  0  0  0
    1.4289   -2.4750    0.0000 N   0  0  0  0  0  0  0  0  0  0  0  0
    1.4289   -1.6500    0.0000 C   0  0  0  0  0  0  0  0  0  0  0  0
    0.7145   -1.2375    0.0000 C   0  0  0  0  0  0  0  0  0  0  0  0
    0.0000   -1.6500    0.0000 H   0  0  0  0  0  0  0  0  0  0  0  0
    0.7145   -0.4125    0.0000 N   0  0  0  0  0  0  0  0  0  0  0  0
    1.4289    0.0000    0.0000 C   0  0  0  0  0  0  0  0  0  0  0  0
    1.4289    0.8250    0.0000 H   0  0  0  0  0  0  0  0  0  0  0  0
    2.1434   -0.4125    0.0000 C   0  0  0  0  0  0  0  0  0  0  0  0
    2.8579    0.0000    0.0000 C   0  0  0  0  0  0  0  0  0  0  0  0
    3.5724   -0.4125    0.0000 C   0  0  0  0  0  0  0  0  0  0  0  0
    3.5724   -1.2375    0.0000 C   0  0  0  0  0  0  0  0  0  0  0  0
    2.8579   -1.6500    0.0000 C   0  0  0  0  0  0  0  0  0  0  0  0
    2.8579   -2.4750    0.0000 H   0  0  0  0  0  0  0  0  0  0  0  0
    2.1434   -1.2375    0.0000 C   0  0  0  0  0  0  0  0  0  0  0  0
    4.2868   -1.6500    0.0000 H   0  0  0  0  0  0  0  0  0  0  0  0
    4.2868   -0.0000    0.0000 H   0  0  0  0  0  0  0  0  0  0  0  0
    2.8579    0.8250    0.0000 H   0  0  0  0  0  0  0  0  0  0  0  0
    2.1434   -2.8875    0.0000 H   0  0  0  0  0  0  0  0  0  0  0  0
  1  2  2  0  0  0  0
  2  3  1  0  0  0  0
  3  4  1  0  0  0  0
  4  5  2  0  0  0  0
  5  6  1  0  0  0  0
  5  7  1  0  0  0  0
  7  8  1  0  0  0  0
  7  9  2  0  0  0  0
  9 10  1  0  0  0  0
  9 11  1  0  0  0  0
 11 12  1  0  0  0  0
 12 13  1  0  0  0  0
 13 14  2  0  0  0  0
 14 15  1  0  0  0  0
 14 16  1  0  0  0  0
 16 17  1  0  0  0  0
 16 18  2  0  0  0  0
 18 19  1  0  0  0  0
 13 19  1  0  0  0  0
 19 20  1  0  0  0  0
 12 21  1  0  0  0  0
 12 22  1  0  0  0  0
 11 23  2  0  0  0  0
  4 23  1  0  0  0  0
 23 24  1  0  0  0  0
  3 25  1  0  0  0  0
  3 26  1  0  0  0  0
  2 27  1  0  0  0  0
 27 28  1  0  0  0  0
 28 29  2  0  0  0  0
 29 30  1  0  0  0  0
 29 31  1  0  0  0  0
 31 32  2  0  0  0  0
 32 33  1  0  0  0  0
 32 34  1  0  0  0  0
 34 35  2  0  0  0  0
 35 36  1  0  0  0  0
 36 37  2  0  0  0  0
 37 38  1  0  0  0  0
 38 39  1  0  0  0  0
 38 40  2  0  0  0  0
 28 40  1  0  0  0  0
 34 40  1  0  0  0  0
 37 41  1  0  0  0  0
 36 42  1  0  0  0  0
 35 43  1  0  0  0  0
 27 44  1  0  0  0  0
M  END
> <Potency>
5.0407871491875

> <pIC50>
5.297501640567201

> <Outcome>
Active

> <is_active>
1

$$$$

  Mrv1921 08232120312D          

 46 49  0  0  0  0            999 V2000
   -3.6610   -4.5769    0.0000 C   0  0  0  0  0  0  0  0  0  0  0  0
   -3.4060   -3.7923    0.0000 N   0  0  0  0  0  0  0  0  0  0  0  0
   -2.5990   -3.6207    0.0000 C   0  0  0  0  0  0  0  0  0  0  0  0
   -2.3441   -2.8361    0.0000 C   0  0  0  0  0  0  0  0  0  0  0  0
   -2.8961   -2.2230    0.0000 H   0  0  0  0  0  0  0  0  0  0  0  0
   -1.5371   -2.6646    0.0000 C   0  0  0  0  0  0  0  0  0  0  0  0
   -1.2822   -1.8800    0.0000 H   0  0  0  0  0  0  0  0  0  0  0  0
   -0.9851   -3.2777    0.0000 C   0  0  0  0  0  0  0  0  0  0  0  0
   -0.1781   -3.1062    0.0000 N   0  0  0  0  0  0  0  0  0  0  0  0
    0.3739   -3.7192    0.0000 C   0  0  0  0  0  0  0  0  0  0  0  0
    0.1190   -4.5039    0.0000 C   0  0  0  0  0  0  0  0  0  0  0  0
    0.6039   -5.1713    0.0000 C   0  0  0  0  0  0  0  0  0  0  0  0
    1.4289   -5.1713    0.0000 H   0  0  0  0  0  0  0  0  0  0  0  0
    0.1190   -5.8387    0.0000 C   0  0  0  0  0  0  0  0  0  0  0  0
    0.3739   -6.6234    0.0000 H   0  0  0  0  0  0  0  0  0  0  0  0
   -0.6657   -5.5838    0.0000 S   0  0  0  0  0  0  0  0  0  0  0  0
   -0.6657   -4.7588    0.0000 C   0  0  0  0  0  0  0  0  0  0  0  0
   -1.4421   -5.0377    0.0000 H   0  0  0  0  0  0  0  0  0  0  0  0
    1.1720   -3.9281    0.0000 H   0  0  0  0  0  0  0  0  0  0  0  0
    1.0181   -3.2038    0.0000 H   0  0  0  0  0  0  0  0  0  0  0  0
    0.0768   -2.3215    0.0000 C   0  0  0  0  0  0  0  0  0  0  0  0
   -0.4752   -1.7084    0.0000 O   0  0  0  0  0  0  0  0  0  0  0  0
    0.8838   -2.1500    0.0000 C   0  0  0  0  0  0  0  0  0  0  0  0
    1.1387   -1.3654    0.0000 N   0  0  0  0  0  0  0  0  0  0  0  0
    0.6538   -0.6979    0.0000 N   0  0  0  0  0  0  0  0  0  0  0  0
    1.1387   -0.0305    0.0000 N   0  0  0  0  0  0  0  0  0  0  0  0
    1.9233   -0.2854    0.0000 C   0  0  0  0  0  0  0  0  0  0  0  0
    2.6378    0.1271    0.0000 C   0  0  0  0  0  0  0  0  0  0  0  0
    3.3523   -0.2854    0.0000 C   0  0  0  0  0  0  0  0  0  0  0  0
    3.3523   -1.1104    0.0000 C   0  0  0  0  0  0  0  0  0  0  0  0
    2.6378   -1.5229    0.0000 C   0  0  0  0  0  0  0  0  0  0  0  0
    2.6378   -2.3479    0.0000 H   0  0  0  0  0  0  0  0  0  0  0  0
    1.9233   -1.1104    0.0000 C   0  0  0  0  0  0  0  0  0  0  0  0
    4.0668   -1.5229    0.0000 H   0  0  0  0  0  0  0  0  0  0  0  0
    4.0668    0.1271    0.0000 H   0  0  0  0  0  0  0  0  0  0  0  0
    2.6378    0.9521    0.0000 H   0  0  0  0  0  0  0  0  0  0  0  0
    1.1019   -2.9456    0.0000 H   0  0  0  0  0  0  0  0  0  0  0  0
    1.6523   -2.4501    0.0000 H   0  0  0  0  0  0  0  0  0  0  0  0
   -1.2400   -4.0623    0.0000 C   0  0  0  0  0  0  0  0  0  0  0  0
   -1.5120   -4.8412    0.0000 H   0  0  0  0  0  0  0  0  0  0  0  0
   -2.0470   -4.2338    0.0000 C   0  0  0  0  0  0  0  0  0  0  0  0
   -2.6631   -4.7825    0.0000 H   0  0  0  0  0  0  0  0  0  0  0  0
   -3.9580   -3.1792    0.0000 H   0  0  0  0  0  0  0  0  0  0  0  0
   -4.4456   -4.3219    0.0000 H   0  0  0  0  0  0  0  0  0  0  0  0
   -3.9159   -5.3615    0.0000 H   0  0  0  0  0  0  0  0  0  0  0  0
   -2.8763   -4.8318    0.0000 H   0  0  0  0  0  0  0  0  0  0  0  0
  1  2  1  0  0  0  0
  2  3  1  0  0  0  0
  3  4  2  0  0  0  0
  4  5  1  0  0  0  0
  4  6  1  0  0  0  0
  6  7  1  0  0  0  0
  6  8  2  0  0  0  0
  8  9  1  0  0  0  0
  9 10  1  0  0  0  0
 10 11  1  0  0  0  0
 11 12  1  0  0  0  0
 12 13  1  0  0  0  0
 12 14  2  0  0  0  0
 14 15  1  0  0  0  0
 14 16  1  0  0  0  0
 16 17  1  0  0  0  0
 11 17  2  0  0  0  0
 17 18  1  0  0  0  0
 10 19  1  0  0  0  0
 10 20  1  0  0  0  0
  9 21  1  0  0  0  0
 21 22  2  0  0  0  0
 21 23  1  0  0  0  0
 23 24  1  0  0  0  0
 24 25  1  0  0  0  0
 25 26  2  0  0  0  0
 26 27  1  0  0  0  0
 27 28  2  0  0  0  0
 28 29  1  0  0  0  0
 29 30  2  0  0  0  0
 30 31  1  0  0  0  0
 31 32  1  0  0  0  0
 31 33  2  0  0  0  0
 24 33  1  0  0  0  0
 27 33  1  0  0  0  0
 30 34  1  0  0  0  0
 29 35  1  0  0  0  0
 28 36  1  0  0  0  0
 23 37  1  0  0  0  0
 23 38  1  0  0  0  0
  8 39  1  0  0  0  0
 39 40  1  0  0  0  0
 39 41  2  0  0  0  0
  3 41  1  0  0  0  0
 41 42  1  0  0  0  0
  2 43  1  0  0  0  0
  1 44  1  0  0  0  0
  1 45  1  0  0  0  0
  1 46  1  0  0  0  0
M  END
> <Potency>
4.32892722638383

> <pIC50>
5.363619715052074

> <Outcome>
Active

> <is_active>
1

$$$$

  Mrv1921 08232120312D          

 54 57  0  0  0  0            999 V2000
   -3.2345   -4.5992    0.0000 C   0  0  0  0  0  0  0  0  0  0  0  0
   -3.4060   -3.7923    0.0000 C   0  0  0  0  0  0  0  0  0  0  0  0
   -3.5775   -2.9853    0.0000 C   0  0  0  0  0  0  0  0  0  0  0  0
   -2.7706   -2.8138    0.0000 H   0  0  0  0  0  0  0  0  0  0  0  0
   -3.7491   -2.1783    0.0000 H   0  0  0  0  0  0  0  0  0  0  0  0
   -4.3845   -3.1568    0.0000 H   0  0  0  0  0  0  0  0  0  0  0  0
   -4.2130   -3.9638    0.0000 C   0  0  0  0  0  0  0  0  0  0  0  0
   -4.4679   -4.7484    0.0000 N   0  0  0  0  0  0  0  0  0  0  0  0
   -5.2919   -4.7892    0.0000 H   0  0  0  0  0  0  0  0  0  0  0  0
   -4.8013   -5.5031    0.0000 H   0  0  0  0  0  0  0  0  0  0  0  0
   -4.7650   -3.3507    0.0000 O   0  0  0  0  0  0  0  0  0  0  0  0
   -2.5990   -3.6207    0.0000 C   0  0  0  0  0  0  0  0  0  0  0  0
   -2.3441   -2.8361    0.0000 C   0  0  0  0  0  0  0  0  0  0  0  0
   -2.4088   -2.0137    0.0000 H   0  0  0  0  0  0  0  0  0  0  0  0
   -1.5371   -2.6646    0.0000 C   0  0  0  0  0  0  0  0  0  0  0  0
   -1.2822   -1.8800    0.0000 H   0  0  0  0  0  0  0  0  0  0  0  0
   -0.9851   -3.2777    0.0000 C   0  0  0  0  0  0  0  0  0  0  0  0
   -0.1781   -3.1062    0.0000 N   0  0  0  0  0  0  0  0  0  0  0  0
    0.3739   -3.7192    0.0000 C   0  0  0  0  0  0  0  0  0  0  0  0
    0.1190   -4.5039    0.0000 C   0  0  0  0  0  0  0  0  0  0  0  0
    0.6039   -5.1713    0.0000 C   0  0  0  0  0  0  0  0  0  0  0  0
    1.4289   -5.1713    0.0000 H   0  0  0  0  0  0  0  0  0  0  0  0
    0.1190   -5.8387    0.0000 C   0  0  0  0  0  0  0  0  0  0  0  0
    0.3739   -6.6234    0.0000 H   0  0  0  0  0  0  0  0  0  0  0  0
   -0.6657   -5.5838    0.0000 S   0  0  0  0  0  0  0  0  0  0  0  0
   -0.6657   -4.7588    0.0000 C   0  0  0  0  0  0  0  0  0  0  0  0
   -1.4421   -5.0377    0.0000 H   0  0  0  0  0  0  0  0  0  0  0  0
    1.1720   -3.9281    0.0000 H   0  0  0  0  0  0  0  0  0  0  0  0
    1.0181   -3.2038    0.0000 H   0  0  0  0  0  0  0  0  0  0  0  0
    0.0768   -2.3215    0.0000 C   0  0  0  0  0  0  0  0  0  0  0  0
   -0.4752   -1.7084    0.0000 O   0  0  0  0  0  0  0  0  0  0  0  0
    0.8838   -2.1500    0.0000 C   0  0  0  0  0  0  0  0  0  0  0  0
    1.1387   -1.3654    0.0000 N   0  0  0  0  0  0  0  0  0  0  0  0
    0.6538   -0.6979    0.0000 N   0  0  0  0  0  0  0  0  0  0  0  0
    1.1387   -0.0305    0.0000 N   0  0  0  0  0  0  0  0  0  0  0  0
    1.9233   -0.2854    0.0000 C   0  0  0  0  0  0  0  0  0  0  0  0
    2.6378    0.1271    0.0000 C   0  0  0  0  0  0  0  0  0  0  0  0
    3.3523   -0.2854    0.0000 C   0  0  0  0  0  0  0  0  0  0  0  0
    3.3523   -1.1104    0.0000 C   0  0  0  0  0  0  0  0  0  0  0  0
    2.6378   -1.5229    0.0000 C   0  0  0  0  0  0  0  0  0  0  0  0
    2.6378   -2.3479    0.0000 H   0  0  0  0  0  0  0  0  0  0  0  0
    1.9233   -1.1104    0.0000 C   0  0  0  0  0  0  0  0  0  0  0  0
    4.0668   -1.5229    0.0000 H   0  0  0  0  0  0  0  0  0  0  0  0
    4.0668    0.1271    0.0000 H   0  0  0  0  0  0  0  0  0  0  0  0
    2.6378    0.9521    0.0000 H   0  0  0  0  0  0  0  0  0  0  0  0
    1.1019   -2.9456    0.0000 H   0  0  0  0  0  0  0  0  0  0  0  0
    1.6523   -2.4501    0.0000 H   0  0  0  0  0  0  0  0  0  0  0  0
   -1.2400   -4.0623    0.0000 C   0  0  0  0  0  0  0  0  0  0  0  0
   -1.5120   -4.8412    0.0000 H   0  0  0  0  0  0  0  0  0  0  0  0
   -2.0470   -4.2338    0.0000 C   0  0  0  0  0  0  0  0  0  0  0  0
   -1.7921   -3.4492    0.0000 H   0  0  0  0  0  0  0  0  0  0  0  0
   -4.0415   -4.7708    0.0000 H   0  0  0  0  0  0  0  0  0  0  0  0
   -3.0630   -5.4062    0.0000 H   0  0  0  0  0  0  0  0  0  0  0  0
   -2.4275   -4.4277    0.0000 H   0  0  0  0  0  0  0  0  0  0  0  0
  1  2  1  0  0  0  0
  2  3  1  0  0  0  0
  3  4  1  0  0  0  0
  3  5  1  0  0  0  0
  3  6  1  0  0  0  0
  2  7  1  0  0  0  0
  7  8  1  0  0  0  0
  8  9  1  0  0  0  0
  8 10  1  0  0  0  0
  7 11  2  0  0  0  0
  2 12  1  0  0  0  0
 12 13  2  0  0  0  0
 13 14  1  0  0  0  0
 13 15  1  0  0  0  0
 15 16  1  0  0  0  0
 15 17  2  0  0  0  0
 17 18  1  0  0  0  0
 18 19  1  0  0  0  0
 19 20  1  0  0  0  0
 20 21  1  0  0  0  0
 21 22  1  0  0  0  0
 21 23  2  0  0  0  0
 23 24  1  0  0  0  0
 23 25  1  0  0  0  0
 25 26  1  0  0  0  0
 20 26  2  0  0  0  0
 26 27  1  0  0  0  0
 19 28  1  0  0  0  0
 19 29  1  0  0  0  0
 18 30  1  0  0  0  0
 30 31  2  0  0  0  0
 30 32  1  0  0  0  0
 32 33  1  0  0  0  0
 33 34  1  0  0  0  0
 34 35  2  0  0  0  0
 35 36  1  0  0  0  0
 36 37  2  0  0  0  0
 37 38  1  0  0  0  0
 38 39  2  0  0  0  0
 39 40  1  0  0  0  0
 40 41  1  0  0  0  0
 40 42  2  0  0  0  0
 33 42  1  0  0  0  0
 36 42  1  0  0  0  0
 39 43  1  0  0  0  0
 38 44  1  0  0  0  0
 37 45  1  0  0  0  0
 32 46  1  0  0  0  0
 32 47  1  0  0  0  0
 17 48  1  0  0  0  0
 48 49  1  0  0  0  0
 48 50  2  0  0  0  0
 12 50  1  0  0  0  0
 50 51  1  0  0  0  0
  1 52  1  0  0  0  0
  1 53  1  0  0  0  0
  1 54  1  0  0  0  0
M  END
> <Potency>
3.16662505907624

> <pIC50>
5.499403355767333

> <Outcome>
Active

> <is_active>
1

$$$$

  Mrv1921 08232120312D          

 31 32  0  0  0  0            999 V2000
   -0.8212    6.8277    0.0000 O   0  0  0  0  0  0  0  0  0  0  0  0
   -0.8212    6.0027    0.0000 C   0  0  0  0  0  0  0  0  0  0  0  0
   -1.5356    5.5902    0.0000 C   0  0  0  0  0  0  0  0  0  0  0  0
   -2.2501    6.0027    0.0000 Cl  0  0  0  0  0  0  0  0  0  0  0  0
   -1.9059    4.8529    0.0000 H   0  0  0  0  0  0  0  0  0  0  0  0
   -1.1654    4.8529    0.0000 H   0  0  0  0  0  0  0  0  0  0  0  0
   -0.1067    5.5902    0.0000 N   0  0  0  0  0  0  0  0  0  0  0  0
    0.6078    6.0027    0.0000 C   0  0  0  0  0  0  0  0  0  0  0  0
    0.9780    6.7399    0.0000 H   0  0  0  0  0  0  0  0  0  0  0  0
    0.2375    6.7399    0.0000 H   0  0  0  0  0  0  0  0  0  0  0  0
    1.3222    5.5902    0.0000 C   0  0  0  0  0  0  0  0  0  0  0  0
    2.1458    5.6381    0.0000 H   0  0  0  0  0  0  0  0  0  0  0  0
    1.7756    6.2795    0.0000 H   0  0  0  0  0  0  0  0  0  0  0  0
    1.3222    4.7652    0.0000 N   0  0  0  0  0  0  0  0  0  0  0  0
    2.0367    4.3527    0.0000 C   0  0  0  0  0  0  0  0  0  0  0  0
    2.0367    3.5277    0.0000 C   0  0  0  0  0  0  0  0  0  0  0  0
    2.7041    3.0428    0.0000 C   0  0  0  0  0  0  0  0  0  0  0  0
    3.4888    3.2977    0.0000 H   0  0  0  0  0  0  0  0  0  0  0  0
    2.4492    2.2581    0.0000 C   0  0  0  0  0  0  0  0  0  0  0  0
    2.9341    1.5907    0.0000 H   0  0  0  0  0  0  0  0  0  0  0  0
    1.6242    2.2581    0.0000 C   0  0  0  0  0  0  0  0  0  0  0  0
    1.1393    1.5907    0.0000 H   0  0  0  0  0  0  0  0  0  0  0  0
    1.3693    3.0428    0.0000 S   0  0  0  0  0  0  0  0  0  0  0  0
    2.8603    4.4006    0.0000 H   0  0  0  0  0  0  0  0  0  0  0  0
    2.4901    5.0420    0.0000 H   0  0  0  0  0  0  0  0  0  0  0  0
    0.6078    4.3527    0.0000 C   0  0  0  0  0  0  0  0  0  0  0  0
    0.2375    3.6154    0.0000 H   0  0  0  0  0  0  0  0  0  0  0  0
    0.9780    3.6154    0.0000 H   0  0  0  0  0  0  0  0  0  0  0  0
   -0.1067    4.7652    0.0000 C   0  0  0  0  0  0  0  0  0  0  0  0
   -0.9303    4.7172    0.0000 H   0  0  0  0  0  0  0  0  0  0  0  0
   -0.5601    4.0759    0.0000 H   0  0  0  0  0  0  0  0  0  0  0  0
  1  2  2  0  0  0  0
  2  3  1  0  0  0  0
  3  4  1  0  0  0  0
  3  5  1  0  0  0  0
  3  6  1  0  0  0  0
  2  7  1  0  0  0  0
  7  8  1  0  0  0  0
  8  9  1  0  0  0  0
  8 10  1  0  0  0  0
  8 11  1  0  0  0  0
 11 12  1  0  0  0  0
 11 13  1  0  0  0  0
 11 14  1  0  0  0  0
 14 15  1  0  0  0  0
 15 16  1  0  0  0  0
 16 17  2  0  0  0  0
 17 18  1  0  0  0  0
 17 19  1  0  0  0  0
 19 20  1  0  0  0  0
 19 21  2  0  0  0  0
 21 22  1  0  0  0  0
 21 23  1  0  0  0  0
 16 23  1  0  0  0  0
 15 24  1  0  0  0  0
 15 25  1  0  0  0  0
 14 26  1  0  0  0  0
 26 27  1  0  0  0  0
 26 28  1  0  0  0  0
 26 29  1  0  0  0  0
  7 29  1  0  0  0  0
 29 30  1  0  0  0  0
 29 31  1  0  0  0  0
M  END
> <Potency>
6.19210917827055

> <pIC50>
5.208161394847381

> <Outcome>
Active

> <is_active>
1

$$$$

  Mrv1921 08232120312D          

 59 62  0  0  0  0            999 V2000
   -2.8579   -6.6000    0.0000 C   0  0  0  0  0  0  0  0  0  0  0  0
   -2.8579   -5.7750    0.0000 C   0  0  0  0  0  0  0  0  0  0  0  0
   -3.5724   -5.3625    0.0000 C   0  0  0  0  0  0  0  0  0  0  0  0
   -4.2868   -5.7750    0.0000 H   0  0  0  0  0  0  0  0  0  0  0  0
   -3.5724   -4.5375    0.0000 C   0  0  0  0  0  0  0  0  0  0  0  0
   -4.2868   -4.1250    0.0000 C   0  0  0  0  0  0  0  0  0  0  0  0
   -3.8743   -3.4105    0.0000 H   0  0  0  0  0  0  0  0  0  0  0  0
   -5.0013   -3.7125    0.0000 H   0  0  0  0  0  0  0  0  0  0  0  0
   -4.6993   -4.8395    0.0000 H   0  0  0  0  0  0  0  0  0  0  0  0
   -2.8579   -4.1250    0.0000 C   0  0  0  0  0  0  0  0  0  0  0  0
   -2.8579   -3.3000    0.0000 C   0  0  0  0  0  0  0  0  0  0  0  0
   -2.0329   -3.3000    0.0000 H   0  0  0  0  0  0  0  0  0  0  0  0
   -2.8579   -2.4750    0.0000 H   0  0  0  0  0  0  0  0  0  0  0  0
   -3.6829   -3.3000    0.0000 H   0  0  0  0  0  0  0  0  0  0  0  0
   -2.1434   -4.5375    0.0000 C   0  0  0  0  0  0  0  0  0  0  0  0
   -1.4289   -4.1250    0.0000 S   0  0  0  0  0  0  0  0  0  0  0  0
   -1.0164   -4.8395    0.0000 O   0  0  0  0  0  0  0  0  0  0  0  0
   -1.8414   -3.4105    0.0000 O   0  0  0  0  0  0  0  0  0  0  0  0
   -0.7145   -3.7125    0.0000 N   0  0  0  0  0  0  0  0  0  0  0  0
   -0.7145   -2.8875    0.0000 C   0  0  0  0  0  0  0  0  0  0  0  0
   -1.1678   -2.1982    0.0000 H   0  0  0  0  0  0  0  0  0  0  0  0
   -1.5381   -2.8395    0.0000 H   0  0  0  0  0  0  0  0  0  0  0  0
    0.0000   -2.4750    0.0000 C   0  0  0  0  0  0  0  0  0  0  0  0
    0.3703   -1.7378    0.0000 H   0  0  0  0  0  0  0  0  0  0  0  0
   -0.3703   -1.7378    0.0000 H   0  0  0  0  0  0  0  0  0  0  0  0
    0.7145   -2.8875    0.0000 N   0  0  0  0  0  0  0  0  0  0  0  0
    1.4289   -2.4750    0.0000 C   0  0  0  0  0  0  0  0  0  0  0  0
    2.1434   -2.8875    0.0000 O   0  0  0  0  0  0  0  0  0  0  0  0
    1.4289   -1.6500    0.0000 C   0  0  0  0  0  0  0  0  0  0  0  0
    0.7145   -1.2375    0.0000 C   0  0  0  0  0  0  0  0  0  0  0  0
   -0.0734   -0.9926    0.0000 H   0  0  0  0  0  0  0  0  0  0  0  0
    0.7145   -0.4125    0.0000 C   0  0  0  0  0  0  0  0  0  0  0  0
    0.0000    0.0000    0.0000 O   0  0  0  0  0  0  0  0  0  0  0  0
    1.4289    0.0000    0.0000 N   0  0  0  0  0  0  0  0  0  0  0  0
    1.4289    0.8250    0.0000 H   0  0  0  0  0  0  0  0  0  0  0  0
    2.1434   -0.4125    0.0000 C   0  0  0  0  0  0  0  0  0  0  0  0
    2.8579    0.0000    0.0000 C   0  0  0  0  0  0  0  0  0  0  0  0
    3.5724   -0.4125    0.0000 C   0  0  0  0  0  0  0  0  0  0  0  0
    3.5724   -1.2375    0.0000 C   0  0  0  0  0  0  0  0  0  0  0  0
    2.8579   -1.6500    0.0000 C   0  0  0  0  0  0  0  0  0  0  0  0
    2.8579   -2.4750    0.0000 H   0  0  0  0  0  0  0  0  0  0  0  0
    2.1434   -1.2375    0.0000 C   0  0  0  0  0  0  0  0  0  0  0  0
    4.2868   -1.6500    0.0000 H   0  0  0  0  0  0  0  0  0  0  0  0
    4.2868   -0.0000    0.0000 H   0  0  0  0  0  0  0  0  0  0  0  0
    2.8579    0.8250    0.0000 H   0  0  0  0  0  0  0  0  0  0  0  0
    0.7145   -3.7125    0.0000 C   0  0  0  0  0  0  0  0  0  0  0  0
    1.1678   -4.4018    0.0000 H   0  0  0  0  0  0  0  0  0  0  0  0
    1.5381   -3.7605    0.0000 H   0  0  0  0  0  0  0  0  0  0  0  0
    0.0000   -4.1250    0.0000 C   0  0  0  0  0  0  0  0  0  0  0  0
   -0.3703   -4.8622    0.0000 H   0  0  0  0  0  0  0  0  0  0  0  0
    0.3703   -4.8622    0.0000 H   0  0  0  0  0  0  0  0  0  0  0  0
   -2.1434   -5.3625    0.0000 C   0  0  0  0  0  0  0  0  0  0  0  0
   -1.4289   -5.7750    0.0000 C   0  0  0  0  0  0  0  0  0  0  0  0
   -1.8414   -6.4895    0.0000 H   0  0  0  0  0  0  0  0  0  0  0  0
   -0.7145   -6.1875    0.0000 H   0  0  0  0  0  0  0  0  0  0  0  0
   -1.0164   -5.0605    0.0000 H   0  0  0  0  0  0  0  0  0  0  0  0
   -3.6829   -6.6000    0.0000 H   0  0  0  0  0  0  0  0  0  0  0  0
   -2.8579   -7.4250    0.0000 H   0  0  0  0  0  0  0  0  0  0  0  0
   -2.0329   -6.6000    0.0000 H   0  0  0  0  0  0  0  0  0  0  0  0
  1  2  1  0  0  0  0
  2  3  2  0  0  0  0
  3  4  1  0  0  0  0
  3  5  1  0  0  0  0
  5  6  1  0  0  0  0
  6  7  1  0  0  0  0
  6  8  1  0  0  0  0
  6  9  1  0  0  0  0
  5 10  2  0  0  0  0
 10 11  1  0  0  0  0
 11 12  1  0  0  0  0
 11 13  1  0  0  0  0
 11 14  1  0  0  0  0
 10 15  1  0  0  0  0
 15 16  1  0  0  0  0
 16 17  2  0  0  0  0
 16 18  2  0  0  0  0
 16 19  1  0  0  0  0
 19 20  1  0  0  0  0
 20 21  1  0  0  0  0
 20 22  1  0  0  0  0
 20 23  1  0  0  0  0
 23 24  1  0  0  0  0
 23 25  1  0  0  0  0
 23 26  1  0  0  0  0
 26 27  1  0  0  0  0
 27 28  2  0  0  0  0
 27 29  1  0  0  0  0
 29 30  4  0  0  0  0
 30 31  1  0  0  0  0
 30 32  4  0  0  0  0
 32 33  2  0  0  0  0
 32 34  4  0  0  0  0
 34 35  1  0  0  0  0
 34 36  4  0  0  0  0
 36 37  4  0  0  0  0
 37 38  4  0  0  0  0
 38 39  4  0  0  0  0
 39 40  4  0  0  0  0
 40 41  1  0  0  0  0
 40 42  4  0  0  0  0
 29 42  4  0  0  0  0
 36 42  4  0  0  0  0
 39 43  1  0  0  0  0
 38 44  1  0  0  0  0
 37 45  1  0  0  0  0
 26 46  1  0  0  0  0
 46 47  1  0  0  0  0
 46 48  1  0  0  0  0
 46 49  1  0  0  0  0
 19 49  1  0  0  0  0
 49 50  1  0  0  0  0
 49 51  1  0  0  0  0
 15 52  2  0  0  0  0
  2 52  1  0  0  0  0
 52 53  1  0  0  0  0
 53 54  1  0  0  0  0
 53 55  1  0  0  0  0
 53 56  1  0  0  0  0
  1 57  1  0  0  0  0
  1 58  1  0  0  0  0
  1 59  1  0  0  0  0
M  END
> <Potency>
8.46159387152077

> <pIC50>
5.072547823201157

> <Outcome>
Active

> <is_active>
1

$$$$

  Mrv1921 08232120312D          

 62 67  0  0  0  0            999 V2000
   -0.2259   -5.9977    0.0000 O   0  0  0  0  0  0  0  0  0  0  0  0
    0.4886   -5.5852    0.0000 C   0  0  0  0  0  0  0  0  0  0  0  0
    0.4886   -4.7602    0.0000 C   0  0  0  0  0  0  0  0  0  0  0  0
    0.0352   -4.0709    0.0000 H   0  0  0  0  0  0  0  0  0  0  0  0
   -0.3351   -4.7122    0.0000 H   0  0  0  0  0  0  0  0  0  0  0  0
    1.2030   -4.3477    0.0000 O   0  0  0  0  0  0  0  0  0  0  0  0
    1.9175   -4.7602    0.0000 C   0  0  0  0  0  0  0  0  0  0  0  0
    2.6320   -4.3477    0.0000 N   0  0  0  0  0  0  0  0  0  0  0  0
    3.3464   -4.7602    0.0000 C   0  0  0  0  0  0  0  0  0  0  0  0
    3.3464   -5.5852    0.0000 C   0  0  0  0  0  0  0  0  0  0  0  0
    4.0609   -5.9977    0.0000 C   0  0  0  0  0  0  0  0  0  0  0  0
    4.7754   -5.5852    0.0000 N   0  0  0  0  0  0  0  0  0  0  0  0
    5.4898   -5.9977    0.0000 C   0  0  0  0  0  0  0  0  0  0  0  0
    5.4898   -6.8227    0.0000 C   0  0  0  0  0  0  0  0  0  0  0  0
    6.3023   -6.6794    0.0000 C   0  0  0  0  0  0  0  0  0  0  0  0
    6.8326   -7.3114    0.0000 O   0  0  0  0  0  0  0  0  0  0  0  0
    6.5845   -5.9042    0.0000 N   0  0  0  0  0  0  0  0  0  0  0  0
    6.0542   -5.2722    0.0000 C   0  0  0  0  0  0  0  0  0  0  0  0
    5.2417   -5.4154    0.0000 C   0  0  0  0  0  0  0  0  0  0  0  0
    5.5239   -4.6402    0.0000 H   0  0  0  0  0  0  0  0  0  0  0  0
    4.7114   -4.7835    0.0000 N   0  0  0  0  0  0  0  0  0  0  0  0
    4.9936   -4.0082    0.0000 C   0  0  0  0  0  0  0  0  0  0  0  0
    4.4633   -3.3762    0.0000 H   0  0  0  0  0  0  0  0  0  0  0  0
    5.8060   -3.8650    0.0000 C   0  0  0  0  0  0  0  0  0  0  0  0
    6.0882   -3.0897    0.0000 C   0  0  0  0  0  0  0  0  0  0  0  0
    6.9007   -2.9464    0.0000 C   0  0  0  0  0  0  0  0  0  0  0  0
    7.4310   -3.5784    0.0000 C   0  0  0  0  0  0  0  0  0  0  0  0
    7.1488   -4.3537    0.0000 C   0  0  0  0  0  0  0  0  0  0  0  0
    7.6791   -4.9857    0.0000 H   0  0  0  0  0  0  0  0  0  0  0  0
    6.3363   -4.4969    0.0000 C   0  0  0  0  0  0  0  0  0  0  0  0
    8.2434   -3.4352    0.0000 H   0  0  0  0  0  0  0  0  0  0  0  0
    7.1828   -2.1712    0.0000 H   0  0  0  0  0  0  0  0  0  0  0  0
    5.5579   -2.4577    0.0000 H   0  0  0  0  0  0  0  0  0  0  0  0
    7.3969   -5.7609    0.0000 H   0  0  0  0  0  0  0  0  0  0  0  0
    4.6774   -6.6794    0.0000 C   0  0  0  0  0  0  0  0  0  0  0  0
    4.9595   -7.4547    0.0000 H   0  0  0  0  0  0  0  0  0  0  0  0
    5.3919   -6.2669    0.0000 H   0  0  0  0  0  0  0  0  0  0  0  0
    4.1471   -7.3114    0.0000 C   0  0  0  0  0  0  0  0  0  0  0  0
    3.3258   -7.2334    0.0000 H   0  0  0  0  0  0  0  0  0  0  0  0
    3.6424   -7.9641    0.0000 H   0  0  0  0  0  0  0  0  0  0  0  0
    4.4292   -8.0867    0.0000 O   0  0  0  0  0  0  0  0  0  0  0  0
    5.2417   -8.2299    0.0000 C   0  0  0  0  0  0  0  0  0  0  0  0
    5.5239   -9.0052    0.0000 C   0  0  0  0  0  0  0  0  0  0  0  0
    6.3363   -9.1484    0.0000 C   0  0  0  0  0  0  0  0  0  0  0  0
    6.8666   -8.5164    0.0000 C   0  0  0  0  0  0  0  0  0  0  0  0
    7.6791   -8.6597    0.0000 Cl  0  0  0  0  0  0  0  0  0  0  0  0
    6.5845   -7.7412    0.0000 C   0  0  0  0  0  0  0  0  0  0  0  0
    7.4063   -7.8131    0.0000 H   0  0  0  0  0  0  0  0  0  0  0  0
    5.7720   -7.5979    0.0000 C   0  0  0  0  0  0  0  0  0  0  0  0
    6.6185   -9.9237    0.0000 H   0  0  0  0  0  0  0  0  0  0  0  0
    4.9936   -9.6371    0.0000 H   0  0  0  0  0  0  0  0  0  0  0  0
    6.2702   -6.2654    0.0000 H   0  0  0  0  0  0  0  0  0  0  0  0
    4.7754   -6.4102    0.0000 H   0  0  0  0  0  0  0  0  0  0  0  0
    4.0451   -5.2014    0.0000 H   0  0  0  0  0  0  0  0  0  0  0  0
    3.3075   -6.3338    0.0000 H   0  0  0  0  0  0  0  0  0  0  0  0
    3.8905   -6.8049    0.0000 H   0  0  0  0  0  0  0  0  0  0  0  0
    2.6320   -5.9977    0.0000 C   0  0  0  0  0  0  0  0  0  0  0  0
    2.2418   -6.7246    0.0000 H   0  0  0  0  0  0  0  0  0  0  0  0
    1.9175   -5.5852    0.0000 C   0  0  0  0  0  0  0  0  0  0  0  0
    1.2030   -5.9977    0.0000 N   0  0  0  0  0  0  0  0  0  0  0  0
    1.2030   -6.8227    0.0000 H   0  0  0  0  0  0  0  0  0  0  0  0
    4.0609   -4.3477    0.0000 H   0  0  0  0  0  0  0  0  0  0  0  0
  1  2  2  0  0  0  0
  2  3  1  0  0  0  0
  3  4  1  0  0  0  0
  3  5  1  0  0  0  0
  3  6  1  0  0  0  0
  6  7  1  0  0  0  0
  7  8  2  0  0  0  0
  8  9  1  0  0  0  0
  9 10  2  0  0  0  0
 10 11  1  0  0  0  0
 11 12  1  0  0  0  0
 12 13  1  0  0  0  0
 13 14  1  0  0  0  0
 14 15  1  0  0  0  0
 15 16  2  0  0  0  0
 15 17  1  0  0  0  0
 17 18  1  0  0  0  0
 18 19  2  0  0  0  0
 19 20  1  0  0  0  0
 19 21  1  0  0  0  0
 21 22  2  0  0  0  0
 22 23  1  0  0  0  0
 22 24  1  0  0  0  0
 24 25  2  0  0  0  0
 25 26  1  0  0  0  0
 26 27  2  0  0  0  0
 27 28  1  0  0  0  0
 28 29  1  0  0  0  0
 28 30  2  0  0  0  0
 18 30  1  0  0  0  0
 24 30  1  0  0  0  0
 27 31  1  0  0  0  0
 26 32  1  0  0  0  0
 25 33  1  0  0  0  0
 17 34  1  0  0  0  0
 14 35  1  0  0  0  0
 35 36  1  0  0  0  0
 35 37  1  0  0  0  0
 35 38  1  0  0  0  0
 38 39  1  0  0  0  0
 38 40  1  0  0  0  0
 38 41  1  0  0  0  0
 41 42  1  0  0  0  0
 42 43  2  0  0  0  0
 43 44  1  0  0  0  0
 44 45  2  0  0  0  0
 45 46  1  0  0  0  0
 45 47  1  0  0  0  0
 47 48  1  0  0  0  0
 47 49  2  0  0  0  0
 14 49  1  0  0  0  0
 42 49  1  0  0  0  0
 44 50  1  0  0  0  0
 43 51  1  0  0  0  0
 13 52  1  0  0  0  0
 13 53  1  0  0  0  0
 12 54  1  0  0  0  0
 11 55  1  0  0  0  0
 11 56  1  0  0  0  0
 10 57  1  0  0  0  0
 57 58  1  0  0  0  0
 57 59  2  0  0  0  0
  7 59  1  0  0  0  0
 59 60  1  0  0  0  0
  2 60  1  0  0  0  0
 60 61  1  0  0  0  0
  9 62  1  0  0  0  0
M  END
> <Potency>
9.47085647607591

> <pIC50>
5.023610744754453

> <Outcome>
Active

> <is_active>
1

$$$$

  Mrv1921 08232120312D          

 50 53  0  0  0  0            999 V2000
    1.3831   -2.2495    0.0000 C   0  0  0  0  0  0  0  0  0  0  0  0
    1.6653   -1.4743    0.0000 O   0  0  0  0  0  0  0  0  0  0  0  0
    2.4777   -1.3310    0.0000 C   0  0  0  0  0  0  0  0  0  0  0  0
    3.0080   -1.9630    0.0000 O   0  0  0  0  0  0  0  0  0  0  0  0
    2.7599   -0.5558    0.0000 N   0  0  0  0  0  0  0  0  0  0  0  0
    3.5724   -0.4125    0.0000 C   0  0  0  0  0  0  0  0  0  0  0  0
    4.1027   -1.0445    0.0000 C   0  0  0  0  0  0  0  0  0  0  0  0
    4.6330   -0.4125    0.0000 C   0  0  0  0  0  0  0  0  0  0  0  0
    5.4454   -0.5558    0.0000 O   0  0  0  0  0  0  0  0  0  0  0  0
    4.3508    0.3627    0.0000 N   0  0  0  0  0  0  0  0  0  0  0  0
    3.5383    0.5060    0.0000 C   0  0  0  0  0  0  0  0  0  0  0  0
    3.0080   -0.1260    0.0000 C   0  0  0  0  0  0  0  0  0  0  0  0
    2.7259    0.6493    0.0000 H   0  0  0  0  0  0  0  0  0  0  0  0
    2.1956    0.0173    0.0000 N   0  0  0  0  0  0  0  0  0  0  0  0
    1.9134    0.7925    0.0000 C   0  0  0  0  0  0  0  0  0  0  0  0
    1.1009    0.9358    0.0000 H   0  0  0  0  0  0  0  0  0  0  0  0
    2.4437    1.4245    0.0000 C   0  0  0  0  0  0  0  0  0  0  0  0
    2.1615    2.1998    0.0000 C   0  0  0  0  0  0  0  0  0  0  0  0
    2.6918    2.8317    0.0000 C   0  0  0  0  0  0  0  0  0  0  0  0
    3.5043    2.6885    0.0000 C   0  0  0  0  0  0  0  0  0  0  0  0
    3.7865    1.9132    0.0000 C   0  0  0  0  0  0  0  0  0  0  0  0
    4.5989    1.7700    0.0000 H   0  0  0  0  0  0  0  0  0  0  0  0
    3.2562    1.2813    0.0000 C   0  0  0  0  0  0  0  0  0  0  0  0
    4.0346    3.3205    0.0000 H   0  0  0  0  0  0  0  0  0  0  0  0
    2.4097    3.6070    0.0000 H   0  0  0  0  0  0  0  0  0  0  0  0
    1.3491    2.3430    0.0000 H   0  0  0  0  0  0  0  0  0  0  0  0
    4.8811    0.9947    0.0000 H   0  0  0  0  0  0  0  0  0  0  0  0
    3.3882   -1.4570    0.0000 C   0  0  0  0  0  0  0  0  0  0  0  0
    4.1027   -1.8695    0.0000 H   0  0  0  0  0  0  0  0  0  0  0  0
    3.6704   -0.6817    0.0000 H   0  0  0  0  0  0  0  0  0  0  0  0
    3.3882   -2.2820    0.0000 C   0  0  0  0  0  0  0  0  0  0  0  0
    2.7033   -2.7420    0.0000 H   0  0  0  0  0  0  0  0  0  0  0  0
    3.1902   -3.0829    0.0000 H   0  0  0  0  0  0  0  0  0  0  0  0
    4.1027   -2.6945    0.0000 O   0  0  0  0  0  0  0  0  0  0  0  0
    4.8171   -2.2820    0.0000 C   0  0  0  0  0  0  0  0  0  0  0  0
    5.5316   -2.6945    0.0000 C   0  0  0  0  0  0  0  0  0  0  0  0
    6.2461   -2.2820    0.0000 C   0  0  0  0  0  0  0  0  0  0  0  0
    6.2461   -1.4570    0.0000 C   0  0  0  0  0  0  0  0  0  0  0  0
    6.9605   -1.0445    0.0000 Cl  0  0  0  0  0  0  0  0  0  0  0  0
    5.5316   -1.0445    0.0000 C   0  0  0  0  0  0  0  0  0  0  0  0
    6.2074   -0.5713    0.0000 H   0  0  0  0  0  0  0  0  0  0  0  0
    4.8171   -1.4570    0.0000 C   0  0  0  0  0  0  0  0  0  0  0  0
    6.9605   -2.6945    0.0000 H   0  0  0  0  0  0  0  0  0  0  0  0
    5.5316   -3.5195    0.0000 H   0  0  0  0  0  0  0  0  0  0  0  0
    4.3422   -0.1160    0.0000 H   0  0  0  0  0  0  0  0  0  0  0  0
    3.2902   -1.1877    0.0000 H   0  0  0  0  0  0  0  0  0  0  0  0
    1.9538   -0.7312    0.0000 H   0  0  0  0  0  0  0  0  0  0  0  0
    0.6078   -1.9673    0.0000 H   0  0  0  0  0  0  0  0  0  0  0  0
    1.1009   -3.0248    0.0000 H   0  0  0  0  0  0  0  0  0  0  0  0
    2.1583   -2.5317    0.0000 H   0  0  0  0  0  0  0  0  0  0  0  0
  1  2  1  0  0  0  0
  2  3  1  0  0  0  0
  3  4  2  0  0  0  0
  3  5  1  0  0  0  0
  5  6  1  0  0  0  0
  6  7  1  0  0  0  0
  7  8  1  0  0  0  0
  8  9  2  0  0  0  0
  8 10  1  0  0  0  0
 10 11  1  0  0  0  0
 11 12  2  0  0  0  0
 12 13  1  0  0  0  0
 12 14  1  0  0  0  0
 14 15  2  0  0  0  0
 15 16  1  0  0  0  0
 15 17  1  0  0  0  0
 17 18  2  0  0  0  0
 18 19  1  0  0  0  0
 19 20  2  0  0  0  0
 20 21  1  0  0  0  0
 21 22  1  0  0  0  0
 21 23  2  0  0  0  0
 11 23  1  0  0  0  0
 17 23  1  0  0  0  0
 20 24  1  0  0  0  0
 19 25  1  0  0  0  0
 18 26  1  0  0  0  0
 10 27  1  0  0  0  0
  7 28  1  0  0  0  0
 28 29  1  0  0  0  0
 28 30  1  0  0  0  0
 28 31  1  0  0  0  0
 31 32  1  0  0  0  0
 31 33  1  0  0  0  0
 31 34  1  0  0  0  0
 34 35  1  0  0  0  0
 35 36  2  0  0  0  0
 36 37  1  0  0  0  0
 37 38  2  0  0  0  0
 38 39  1  0  0  0  0
 38 40  1  0  0  0  0
 40 41  1  0  0  0  0
 40 42  2  0  0  0  0
  7 42  1  0  0  0  0
 35 42  1  0  0  0  0
 37 43  1  0  0  0  0
 36 44  1  0  0  0  0
  6 45  1  0  0  0  0
  6 46  1  0  0  0  0
  5 47  1  0  0  0  0
  1 48  1  0  0  0  0
  1 49  1  0  0  0  0
  1 50  1  0  0  0  0
M  END
> <Potency>
0.572747205981189

> <pIC50>
6.24203702074164

> <Outcome>
Active

> <is_active>
1

$$$$

  Mrv1921 08232120312D          

 35 37  0  0  0  0            999 V2000
    0.0000   -2.4750    0.0000 O   0  0  0  0  0  0  0  0  0  0  0  0
    0.7145   -2.8875    0.0000 C   0  0  0  0  0  0  0  0  0  0  0  0
    0.7145   -3.7125    0.0000 C   0  0  0  0  0  0  0  0  0  0  0  0
    0.0000   -4.1250    0.0000 C   0  0  0  0  0  0  0  0  0  0  0  0
    0.0000   -4.9500    0.0000 C   0  0  0  0  0  0  0  0  0  0  0  0
    0.7145   -5.3625    0.0000 H   0  0  0  0  0  0  0  0  0  0  0  0
   -0.7145   -5.3625    0.0000 C   0  0  0  0  0  0  0  0  0  0  0  0
   -0.7145   -6.1875    0.0000 H   0  0  0  0  0  0  0  0  0  0  0  0
   -1.4289   -4.9500    0.0000 C   0  0  0  0  0  0  0  0  0  0  0  0
   -2.1434   -5.3625    0.0000 H   0  0  0  0  0  0  0  0  0  0  0  0
   -1.4289   -4.1250    0.0000 C   0  0  0  0  0  0  0  0  0  0  0  0
   -2.1434   -3.7125    0.0000 Cl  0  0  0  0  0  0  0  0  0  0  0  0
   -0.7145   -3.7125    0.0000 C   0  0  0  0  0  0  0  0  0  0  0  0
   -0.7145   -2.8875    0.0000 H   0  0  0  0  0  0  0  0  0  0  0  0
    1.1678   -4.4018    0.0000 H   0  0  0  0  0  0  0  0  0  0  0  0
    1.5381   -3.7605    0.0000 H   0  0  0  0  0  0  0  0  0  0  0  0
    1.4289   -2.4750    0.0000 N   0  0  0  0  0  0  0  0  0  0  0  0
    1.4289   -1.6500    0.0000 C   0  0  0  0  0  0  0  0  0  0  0  0
    0.7145   -1.2375    0.0000 C   0  0  0  0  0  0  0  0  0  0  0  0
    0.0000   -1.6500    0.0000 O   0  0  0  0  0  0  0  0  0  0  0  0
   -0.7145   -1.2375    0.0000 H   0  0  0  0  0  0  0  0  0  0  0  0
    0.7145   -0.4125    0.0000 C   0  0  0  0  0  0  0  0  0  0  0  0
    0.0000    0.0000    0.0000 H   0  0  0  0  0  0  0  0  0  0  0  0
    1.4289    0.0000    0.0000 N   0  0  0  0  0  0  0  0  0  0  0  0
    2.1434   -0.4125    0.0000 C   0  0  0  0  0  0  0  0  0  0  0  0
    2.8579    0.0000    0.0000 C   0  0  0  0  0  0  0  0  0  0  0  0
    3.5724   -0.4125    0.0000 C   0  0  0  0  0  0  0  0  0  0  0  0
    3.5724   -1.2375    0.0000 C   0  0  0  0  0  0  0  0  0  0  0  0
    2.8579   -1.6500    0.0000 C   0  0  0  0  0  0  0  0  0  0  0  0
    2.8579   -2.4750    0.0000 H   0  0  0  0  0  0  0  0  0  0  0  0
    2.1434   -1.2375    0.0000 C   0  0  0  0  0  0  0  0  0  0  0  0
    4.2868   -1.6500    0.0000 H   0  0  0  0  0  0  0  0  0  0  0  0
    4.2868   -0.0000    0.0000 H   0  0  0  0  0  0  0  0  0  0  0  0
    2.8579    0.8250    0.0000 H   0  0  0  0  0  0  0  0  0  0  0  0
    2.1434   -2.8875    0.0000 H   0  0  0  0  0  0  0  0  0  0  0  0
  1  2  2  0  0  0  0
  2  3  1  0  0  0  0
  3  4  1  0  0  0  0
  4  5  2  0  0  0  0
  5  6  1  0  0  0  0
  5  7  1  0  0  0  0
  7  8  1  0  0  0  0
  7  9  2  0  0  0  0
  9 10  1  0  0  0  0
  9 11  1  0  0  0  0
 11 12  1  0  0  0  0
 11 13  2  0  0  0  0
  4 13  1  0  0  0  0
 13 14  1  0  0  0  0
  3 15  1  0  0  0  0
  3 16  1  0  0  0  0
  2 17  1  0  0  0  0
 17 18  1  0  0  0  0
 18 19  2  0  0  0  0
 19 20  1  0  0  0  0
 20 21  1  0  0  0  0
 19 22  1  0  0  0  0
 22 23  1  0  0  0  0
 22 24  2  0  0  0  0
 24 25  1  0  0  0  0
 25 26  2  0  0  0  0
 26 27  1  0  0  0  0
 27 28  2  0  0  0  0
 28 29  1  0  0  0  0
 29 30  1  0  0  0  0
 29 31  2  0  0  0  0
 18 31  1  0  0  0  0
 25 31  1  0  0  0  0
 28 32  1  0  0  0  0
 27 33  1  0  0  0  0
 26 34  1  0  0  0  0
 17 35  1  0  0  0  0
M  END
> <Potency>
8.4380376434761

> <pIC50>
5.073758541490582

> <Outcome>
Active

> <is_active>
1

$$$$

  Mrv1921 08232120312D          

 73 77  0  0  0  0            999 V2000
    7.0380   -3.3616    0.0000 C   0  0  0  0  0  0  0  0  0  0  0  0
    6.3235   -2.9491    0.0000 C   0  0  0  0  0  0  0  0  0  0  0  0
    6.7360   -2.2346    0.0000 C   0  0  0  0  0  0  0  0  0  0  0  0
    7.3905   -1.7324    0.0000 H   0  0  0  0  0  0  0  0  0  0  0  0
    6.5225   -1.4377    0.0000 H   0  0  0  0  0  0  0  0  0  0  0  0
    5.9181   -2.1270    0.0000 H   0  0  0  0  0  0  0  0  0  0  0  0
    5.9110   -3.6636    0.0000 C   0  0  0  0  0  0  0  0  0  0  0  0
    5.4088   -3.0091    0.0000 H   0  0  0  0  0  0  0  0  0  0  0  0
    5.1141   -3.8771    0.0000 H   0  0  0  0  0  0  0  0  0  0  0  0
    5.8033   -4.4815    0.0000 H   0  0  0  0  0  0  0  0  0  0  0  0
    5.6091   -2.5366    0.0000 C   0  0  0  0  0  0  0  0  0  0  0  0
    4.8946   -2.9491    0.0000 C   0  0  0  0  0  0  0  0  0  0  0  0
    4.2327   -3.4416    0.0000 H   0  0  0  0  0  0  0  0  0  0  0  0
    4.1801   -2.5366    0.0000 C   0  0  0  0  0  0  0  0  0  0  0  0
    3.4569   -2.1397    0.0000 H   0  0  0  0  0  0  0  0  0  0  0  0
    4.1801   -1.7116    0.0000 C   0  0  0  0  0  0  0  0  0  0  0  0
    3.4656   -1.2991    0.0000 N   0  0  0  0  0  0  0  0  0  0  0  0
    2.7512   -1.7116    0.0000 C   0  0  0  0  0  0  0  0  0  0  0  0
    2.0367   -1.2991    0.0000 O   0  0  0  0  0  0  0  0  0  0  0  0
    2.7512   -2.5366    0.0000 C   0  0  0  0  0  0  0  0  0  0  0  0
    3.4186   -3.0215    0.0000 C   0  0  0  0  0  0  0  0  0  0  0  0
    2.6340   -3.2765    0.0000 H   0  0  0  0  0  0  0  0  0  0  0  0
    3.1637   -3.8062    0.0000 O   0  0  0  0  0  0  0  0  0  0  0  0
    2.3387   -3.8062    0.0000 C   0  0  0  0  0  0  0  0  0  0  0  0
    1.8538   -4.4736    0.0000 H   0  0  0  0  0  0  0  0  0  0  0  0
    2.0837   -3.0215    0.0000 N   0  0  0  0  0  0  0  0  0  0  0  0
    3.4656   -0.4741    0.0000 C   0  0  0  0  0  0  0  0  0  0  0  0
    2.7512   -0.0616    0.0000 C   0  0  0  0  0  0  0  0  0  0  0  0
    2.0367   -0.4741    0.0000 O   0  0  0  0  0  0  0  0  0  0  0  0
    2.7512    0.7634    0.0000 N   0  0  0  0  0  0  0  0  0  0  0  0
    2.0367    1.1759    0.0000 C   0  0  0  0  0  0  0  0  0  0  0  0
    1.2131    1.1279    0.0000 H   0  0  0  0  0  0  0  0  0  0  0  0
    1.5834    0.4866    0.0000 H   0  0  0  0  0  0  0  0  0  0  0  0
    2.0367    2.0009    0.0000 C   0  0  0  0  0  0  0  0  0  0  0  0
    1.5834    2.6902    0.0000 H   0  0  0  0  0  0  0  0  0  0  0  0
    1.2131    2.0489    0.0000 H   0  0  0  0  0  0  0  0  0  0  0  0
    2.7512    2.4134    0.0000 C   0  0  0  0  0  0  0  0  0  0  0  0
    2.7512    3.2384    0.0000 C   0  0  0  0  0  0  0  0  0  0  0  0
    2.0367    3.6509    0.0000 C   0  0  0  0  0  0  0  0  0  0  0  0
    1.3222    3.2384    0.0000 H   0  0  0  0  0  0  0  0  0  0  0  0
    2.0367    4.4759    0.0000 C   0  0  0  0  0  0  0  0  0  0  0  0
    1.3222    4.8884    0.0000 H   0  0  0  0  0  0  0  0  0  0  0  0
    2.7512    4.8884    0.0000 C   0  0  0  0  0  0  0  0  0  0  0  0
    2.7512    5.7134    0.0000 H   0  0  0  0  0  0  0  0  0  0  0  0
    3.4656    4.4759    0.0000 C   0  0  0  0  0  0  0  0  0  0  0  0
    4.1801    4.8884    0.0000 F   0  0  0  0  0  0  0  0  0  0  0  0
    3.4656    3.6509    0.0000 C   0  0  0  0  0  0  0  0  0  0  0  0
    4.2906    3.6509    0.0000 H   0  0  0  0  0  0  0  0  0  0  0  0
    3.4656    2.8259    0.0000 H   0  0  0  0  0  0  0  0  0  0  0  0
    3.4656    2.0009    0.0000 C   0  0  0  0  0  0  0  0  0  0  0  0
    4.2409    1.7187    0.0000 H   0  0  0  0  0  0  0  0  0  0  0  0
    4.2409    2.2831    0.0000 H   0  0  0  0  0  0  0  0  0  0  0  0
    3.4656    1.1759    0.0000 C   0  0  0  0  0  0  0  0  0  0  0  0
    3.4656    0.3509    0.0000 H   0  0  0  0  0  0  0  0  0  0  0  0
    2.7512    1.5884    0.0000 H   0  0  0  0  0  0  0  0  0  0  0  0
    4.1801   -0.0616    0.0000 C   0  0  0  0  0  0  0  0  0  0  0  0
    4.1801    0.7634    0.0000 C   0  0  0  0  0  0  0  0  0  0  0  0
    4.8946    0.3509    0.0000 H   0  0  0  0  0  0  0  0  0  0  0  0
    4.8946    1.1759    0.0000 C   0  0  0  0  0  0  0  0  0  0  0  0
    5.3661    1.8529    0.0000 H   0  0  0  0  0  0  0  0  0  0  0  0
    5.6091    0.7634    0.0000 C   0  0  0  0  0  0  0  0  0  0  0  0
    6.3235    1.1759    0.0000 H   0  0  0  0  0  0  0  0  0  0  0  0
    5.6091   -0.0616    0.0000 N   0  0  0  0  0  0  0  0  0  0  0  0
    4.8946   -0.4741    0.0000 C   0  0  0  0  0  0  0  0  0  0  0  0
    4.1801   -0.8866    0.0000 H   0  0  0  0  0  0  0  0  0  0  0  0
    2.7512   -0.8866    0.0000 H   0  0  0  0  0  0  0  0  0  0  0  0
    4.8946   -1.2991    0.0000 C   0  0  0  0  0  0  0  0  0  0  0  0
    5.6091   -0.8866    0.0000 H   0  0  0  0  0  0  0  0  0  0  0  0
    5.6091   -1.7116    0.0000 C   0  0  0  0  0  0  0  0  0  0  0  0
    4.8946   -2.1241    0.0000 H   0  0  0  0  0  0  0  0  0  0  0  0
    6.6255   -4.0761    0.0000 H   0  0  0  0  0  0  0  0  0  0  0  0
    7.7525   -3.7741    0.0000 H   0  0  0  0  0  0  0  0  0  0  0  0
    7.4505   -2.6471    0.0000 H   0  0  0  0  0  0  0  0  0  0  0  0
  1  2  1  0  0  0  0
  2  3  1  0  0  0  0
  3  4  1  0  0  0  0
  3  5  1  0  0  0  0
  3  6  1  0  0  0  0
  2  7  1  0  0  0  0
  7  8  1  0  0  0  0
  7  9  1  0  0  0  0
  7 10  1  0  0  0  0
  2 11  1  0  0  0  0
 11 12  2  0  0  0  0
 12 13  1  0  0  0  0
 12 14  1  0  0  0  0
 14 15  1  0  0  0  0
 14 16  2  0  0  0  0
 16 17  1  0  0  0  0
 17 18  1  0  0  0  0
 18 19  2  0  0  0  0
 18 20  1  0  0  0  0
 20 21  2  0  0  0  0
 21 22  1  0  0  0  0
 21 23  1  0  0  0  0
 23 24  1  0  0  0  0
 24 25  1  0  0  0  0
 24 26  2  0  0  0  0
 20 26  1  0  0  0  0
 17 27  1  0  0  0  0
 27 28  1  0  0  0  0
 28 29  2  0  0  0  0
 28 30  1  0  0  0  0
 30 31  1  0  0  0  0
 31 32  1  0  0  0  0
 31 33  1  0  0  0  0
 31 34  1  0  0  0  0
 34 35  1  0  0  0  0
 34 36  1  0  0  0  0
 34 37  1  0  0  0  0
 37 38  1  0  0  0  0
 38 39  2  0  0  0  0
 39 40  1  0  0  0  0
 39 41  1  0  0  0  0
 41 42  1  0  0  0  0
 41 43  2  0  0  0  0
 43 44  1  0  0  0  0
 43 45  1  0  0  0  0
 45 46  1  0  0  0  0
 45 47  2  0  0  0  0
 38 47  1  0  0  0  0
 47 48  1  0  0  0  0
 37 49  1  0  0  0  0
 37 50  1  0  0  0  0
 50 51  1  0  0  0  0
 50 52  1  0  0  0  0
 50 53  1  0  0  0  0
 30 53  1  0  0  0  0
 53 54  1  0  0  0  0
 53 55  1  0  0  0  0
 27 56  1  0  0  0  0
 56 57  2  0  0  0  0
 57 58  1  0  0  0  0
 57 59  1  0  0  0  0
 59 60  1  0  0  0  0
 59 61  2  0  0  0  0
 61 62  1  0  0  0  0
 61 63  1  0  0  0  0
 63 64  2  0  0  0  0
 56 64  1  0  0  0  0
 64 65  1  0  0  0  0
 27 66  1  0  0  0  0
 16 67  1  0  0  0  0
 67 68  1  0  0  0  0
 67 69  2  0  0  0  0
 11 69  1  0  0  0  0
 69 70  1  0  0  0  0
  1 71  1  0  0  0  0
  1 72  1  0  0  0  0
  1 73  1  0  0  0  0
M  END
> <Potency>
9.4567372395224

> <pIC50>
5.024258677899405

> <Outcome>
Active

> <is_active>
1

$$$$

  Mrv1921 08232120312D          

 44 47  0  0  0  0            999 V2000
    2.1434   -6.1875    0.0000 N   0  0  0  0  0  0  0  0  0  0  0  0
    2.1434   -5.3625    0.0000 C   0  0  0  0  0  0  0  0  0  0  0  0
    2.8579   -4.9500    0.0000 O   0  0  0  0  0  0  0  0  0  0  0  0
    1.4289   -4.9500    0.0000 N   0  0  0  0  0  0  0  0  0  0  0  0
    0.7145   -5.3625    0.0000 C   0  0  0  0  0  0  0  0  0  0  0  0
    0.3442   -6.0997    0.0000 H   0  0  0  0  0  0  0  0  0  0  0  0
    1.0847   -6.0997    0.0000 H   0  0  0  0  0  0  0  0  0  0  0  0
    0.0000   -4.9500    0.0000 C   0  0  0  0  0  0  0  0  0  0  0  0
   -0.7145   -5.3625    0.0000 C   0  0  0  0  0  0  0  0  0  0  0  0
   -1.4289   -4.9500    0.0000 C   0  0  0  0  0  0  0  0  0  0  0  0
   -1.4289   -4.1250    0.0000 C   0  0  0  0  0  0  0  0  0  0  0  0
   -2.1434   -3.7125    0.0000 Cl  0  0  0  0  0  0  0  0  0  0  0  0
   -0.7145   -3.7125    0.0000 C   0  0  0  0  0  0  0  0  0  0  0  0
   -0.7145   -2.8875    0.0000 H   0  0  0  0  0  0  0  0  0  0  0  0
    0.0000   -4.1250    0.0000 C   0  0  0  0  0  0  0  0  0  0  0  0
    0.7145   -3.7125    0.0000 C   0  0  0  0  0  0  0  0  0  0  0  0
    0.7145   -2.8875    0.0000 C   0  0  0  0  0  0  0  0  0  0  0  0
    0.0000   -2.4750    0.0000 O   0  0  0  0  0  0  0  0  0  0  0  0
    1.4289   -2.4750    0.0000 N   0  0  0  0  0  0  0  0  0  0  0  0
    1.4289   -1.6500    0.0000 C   0  0  0  0  0  0  0  0  0  0  0  0
    0.7145   -1.2375    0.0000 C   0  0  0  0  0  0  0  0  0  0  0  0
    0.0000   -1.6500    0.0000 H   0  0  0  0  0  0  0  0  0  0  0  0
    0.7145   -0.4125    0.0000 N   0  0  0  0  0  0  0  0  0  0  0  0
    1.4289    0.0000    0.0000 C   0  0  0  0  0  0  0  0  0  0  0  0
    1.4289    0.8250    0.0000 H   0  0  0  0  0  0  0  0  0  0  0  0
    2.1434   -0.4125    0.0000 C   0  0  0  0  0  0  0  0  0  0  0  0
    2.8579    0.0000    0.0000 C   0  0  0  0  0  0  0  0  0  0  0  0
    3.5724   -0.4125    0.0000 C   0  0  0  0  0  0  0  0  0  0  0  0
    3.5724   -1.2375    0.0000 C   0  0  0  0  0  0  0  0  0  0  0  0
    2.8579   -1.6500    0.0000 C   0  0  0  0  0  0  0  0  0  0  0  0
    2.8579   -2.4750    0.0000 H   0  0  0  0  0  0  0  0  0  0  0  0
    2.1434   -1.2375    0.0000 C   0  0  0  0  0  0  0  0  0  0  0  0
    4.2868   -1.6500    0.0000 H   0  0  0  0  0  0  0  0  0  0  0  0
    4.2868   -0.0000    0.0000 H   0  0  0  0  0  0  0  0  0  0  0  0
    2.8579    0.8250    0.0000 H   0  0  0  0  0  0  0  0  0  0  0  0
    2.2539   -2.4750    0.0000 H   0  0  0  0  0  0  0  0  0  0  0  0
    1.4289   -3.3000    0.0000 H   0  0  0  0  0  0  0  0  0  0  0  0
    1.4289   -4.1250    0.0000 C   0  0  0  0  0  0  0  0  0  0  0  0
    2.2042   -4.4072    0.0000 H   0  0  0  0  0  0  0  0  0  0  0  0
    2.2042   -3.8428    0.0000 H   0  0  0  0  0  0  0  0  0  0  0  0
   -2.1434   -5.3625    0.0000 H   0  0  0  0  0  0  0  0  0  0  0  0
   -0.7145   -6.1875    0.0000 H   0  0  0  0  0  0  0  0  0  0  0  0
    1.4289   -6.6000    0.0000 H   0  0  0  0  0  0  0  0  0  0  0  0
    2.8579   -6.6000    0.0000 H   0  0  0  0  0  0  0  0  0  0  0  0
  1  2  1  0  0  0  0
  2  3  2  0  0  0  0
  2  4  1  0  0  0  0
  4  5  1  0  0  0  0
  5  6  1  0  0  0  0
  5  7  1  0  0  0  0
  5  8  1  0  0  0  0
  8  9  2  0  0  0  0
  9 10  1  0  0  0  0
 10 11  2  0  0  0  0
 11 12  1  0  0  0  0
 11 13  1  0  0  0  0
 13 14  1  0  0  0  0
 13 15  2  0  0  0  0
  8 15  1  0  0  0  0
 15 16  1  0  0  0  0
 16 17  1  0  0  0  0
 17 18  2  0  0  0  0
 17 19  1  0  0  0  0
 19 20  1  0  0  0  0
 20 21  2  0  0  0  0
 21 22  1  0  0  0  0
 21 23  1  0  0  0  0
 23 24  2  0  0  0  0
 24 25  1  0  0  0  0
 24 26  1  0  0  0  0
 26 27  2  0  0  0  0
 27 28  1  0  0  0  0
 28 29  2  0  0  0  0
 29 30  1  0  0  0  0
 30 31  1  0  0  0  0
 30 32  2  0  0  0  0
 20 32  1  0  0  0  0
 26 32  1  0  0  0  0
 29 33  1  0  0  0  0
 28 34  1  0  0  0  0
 27 35  1  0  0  0  0
 19 36  1  0  0  0  0
 16 37  1  0  0  0  0
 16 38  1  0  0  0  0
  4 38  1  0  0  0  0
 38 39  1  0  0  0  0
 38 40  1  0  0  0  0
 10 41  1  0  0  0  0
  9 42  1  0  0  0  0
  1 43  1  0  0  0  0
  1 44  1  0  0  0  0
M  END
> <Potency>
0.250095010756057

> <pIC50>
6.601894972094873

> <Outcome>
Active

> <is_active>
1

$$$$

  Mrv1921 08232120312D          

 39 42  0  0  0  0            999 V2000
    2.8579    0.8250    0.0000 O   0  0  0  0  0  0  0  0  0  0  0  0
    3.5724    1.2375    0.0000 C   0  0  0  0  0  0  0  0  0  0  0  0
    3.5724    2.0625    0.0000 C   0  0  0  0  0  0  0  0  0  0  0  0
    3.1190    2.7518    0.0000 H   0  0  0  0  0  0  0  0  0  0  0  0
    2.7488    2.1105    0.0000 H   0  0  0  0  0  0  0  0  0  0  0  0
    4.2868    2.4750    0.0000 C   0  0  0  0  0  0  0  0  0  0  0  0
    4.2868    3.3000    0.0000 C   0  0  0  0  0  0  0  0  0  0  0  0
    5.0013    3.7125    0.0000 O   0  0  0  0  0  0  0  0  0  0  0  0
    3.5724    3.7125    0.0000 N   0  0  0  0  0  0  0  0  0  0  0  0
    3.5724    4.5375    0.0000 C   0  0  0  0  0  0  0  0  0  0  0  0
    2.8579    4.9500    0.0000 C   0  0  0  0  0  0  0  0  0  0  0  0
    2.1434    4.5375    0.0000 H   0  0  0  0  0  0  0  0  0  0  0  0
    2.8579    5.7750    0.0000 N   0  0  0  0  0  0  0  0  0  0  0  0
    3.5724    6.1875    0.0000 C   0  0  0  0  0  0  0  0  0  0  0  0
    3.5724    7.0125    0.0000 H   0  0  0  0  0  0  0  0  0  0  0  0
    4.2868    5.7750    0.0000 C   0  0  0  0  0  0  0  0  0  0  0  0
    5.0013    6.1875    0.0000 C   0  0  0  0  0  0  0  0  0  0  0  0
    5.7158    5.7750    0.0000 C   0  0  0  0  0  0  0  0  0  0  0  0
    5.7158    4.9500    0.0000 C   0  0  0  0  0  0  0  0  0  0  0  0
    5.0013    4.5375    0.0000 C   0  0  0  0  0  0  0  0  0  0  0  0
    4.2868    4.1250    0.0000 H   0  0  0  0  0  0  0  0  0  0  0  0
    4.2868    4.9500    0.0000 C   0  0  0  0  0  0  0  0  0  0  0  0
    6.4302    4.5375    0.0000 H   0  0  0  0  0  0  0  0  0  0  0  0
    6.4302    6.1875    0.0000 H   0  0  0  0  0  0  0  0  0  0  0  0
    5.0013    7.0125    0.0000 H   0  0  0  0  0  0  0  0  0  0  0  0
    2.8579    3.3000    0.0000 H   0  0  0  0  0  0  0  0  0  0  0  0
    5.0013    2.8875    0.0000 H   0  0  0  0  0  0  0  0  0  0  0  0
    5.0013    2.0625    0.0000 C   0  0  0  0  0  0  0  0  0  0  0  0
    5.7158    2.4750    0.0000 C   0  0  0  0  0  0  0  0  0  0  0  0
    6.4302    2.0625    0.0000 C   0  0  0  0  0  0  0  0  0  0  0  0
    7.1447    2.4750    0.0000 Cl  0  0  0  0  0  0  0  0  0  0  0  0
    6.4302    1.2375    0.0000 C   0  0  0  0  0  0  0  0  0  0  0  0
    7.1447    0.8250    0.0000 Cl  0  0  0  0  0  0  0  0  0  0  0  0
    5.7158    0.8250    0.0000 C   0  0  0  0  0  0  0  0  0  0  0  0
    5.7158    0.0000    0.0000 H   0  0  0  0  0  0  0  0  0  0  0  0
    5.0013    1.2375    0.0000 C   0  0  0  0  0  0  0  0  0  0  0  0
    4.2868    0.8250    0.0000 N   0  0  0  0  0  0  0  0  0  0  0  0
    4.2868    0.0000    0.0000 H   0  0  0  0  0  0  0  0  0  0  0  0
    6.1283    3.1895    0.0000 H   0  0  0  0  0  0  0  0  0  0  0  0
  1  2  2  0  0  0  0
  2  3  1  0  0  0  0
  3  4  1  0  0  0  0
  3  5  1  0  0  0  0
  3  6  1  0  0  0  0
  6  7  1  0  0  0  0
  7  8  2  0  0  0  0
  7  9  1  0  0  0  0
  9 10  1  0  0  0  0
 10 11  2  0  0  0  0
 11 12  1  0  0  0  0
 11 13  1  0  0  0  0
 13 14  2  0  0  0  0
 14 15  1  0  0  0  0
 14 16  1  0  0  0  0
 16 17  2  0  0  0  0
 17 18  1  0  0  0  0
 18 19  2  0  0  0  0
 19 20  1  0  0  0  0
 20 21  1  0  0  0  0
 20 22  2  0  0  0  0
 10 22  1  0  0  0  0
 16 22  1  0  0  0  0
 19 23  1  0  0  0  0
 18 24  1  0  0  0  0
 17 25  1  0  0  0  0
  9 26  1  0  0  0  0
  6 27  1  0  0  0  0
  6 28  1  0  0  0  0
 28 29  2  0  0  0  0
 29 30  1  0  0  0  0
 30 31  1  0  0  0  0
 30 32  2  0  0  0  0
 32 33  1  0  0  0  0
 32 34  1  0  0  0  0
 34 35  1  0  0  0  0
 34 36  2  0  0  0  0
 28 36  1  0  0  0  0
 36 37  1  0  0  0  0
  2 37  1  0  0  0  0
 37 38  1  0  0  0  0
 29 39  1  0  0  0  0
M  END
> <Potency>
0.196068019126114

> <pIC50>
6.7075932388142565

> <Outcome>
Active

> <is_active>
1

$$$$

  Mrv1921 08232120312D          

 83 86  0  0  0  0            999 V2000
    0.9584    1.2586    0.0000 C   0  0  0  0  0  0  0  0  0  0  0  0
    0.8722    0.4381    0.0000 O   0  0  0  0  0  0  0  0  0  0  0  0
    1.5396   -0.0468    0.0000 C   0  0  0  0  0  0  0  0  0  0  0  0
    2.2933    0.2887    0.0000 O   0  0  0  0  0  0  0  0  0  0  0  0
    1.4534   -0.8673    0.0000 C   0  0  0  0  0  0  0  0  0  0  0  0
    2.0665   -1.4194    0.0000 C   0  0  0  0  0  0  0  0  0  0  0  0
    2.8595   -1.6468    0.0000 H   0  0  0  0  0  0  0  0  0  0  0  0
    2.6985   -0.8891    0.0000 H   0  0  0  0  0  0  0  0  0  0  0  0
    1.7309   -2.1730    0.0000 C   0  0  0  0  0  0  0  0  0  0  0  0
    2.1434   -2.8875    0.0000 N   0  0  0  0  0  0  0  0  0  0  0  0
    2.9684   -2.8875    0.0000 C   0  0  0  0  0  0  0  0  0  0  0  0
    3.3809   -2.1730    0.0000 O   0  0  0  0  0  0  0  0  0  0  0  0
    3.3809   -3.6020    0.0000 C   0  0  0  0  0  0  0  0  0  0  0  0
    2.9684   -4.3164    0.0000 C   0  0  0  0  0  0  0  0  0  0  0  0
    3.3809   -5.0309    0.0000 C   0  0  0  0  0  0  0  0  0  0  0  0
    3.7934   -4.3164    0.0000 H   0  0  0  0  0  0  0  0  0  0  0  0
    2.9684   -5.7454    0.0000 C   0  0  0  0  0  0  0  0  0  0  0  0
    3.3809   -6.4599    0.0000 H   0  0  0  0  0  0  0  0  0  0  0  0
    2.1434   -5.7454    0.0000 C   0  0  0  0  0  0  0  0  0  0  0  0
    1.7309   -6.4599    0.0000 H   0  0  0  0  0  0  0  0  0  0  0  0
    1.7309   -5.0309    0.0000 N   0  0  0  0  0  0  0  0  0  0  0  0
    2.1434   -4.3164    0.0000 C   0  0  0  0  0  0  0  0  0  0  0  0
    1.3446   -4.1100    0.0000 H   0  0  0  0  0  0  0  0  0  0  0  0
    4.2059   -3.6020    0.0000 N   0  0  0  0  0  0  0  0  0  0  0  0
    4.6184   -2.8875    0.0000 C   0  0  0  0  0  0  0  0  0  0  0  0
    4.2059   -2.1730    0.0000 O   0  0  0  0  0  0  0  0  0  0  0  0
    5.4434   -2.8875    0.0000 C   0  0  0  0  0  0  0  0  0  0  0  0
    5.9283   -2.2201    0.0000 C   0  0  0  0  0  0  0  0  0  0  0  0
    5.6734   -1.4354    0.0000 H   0  0  0  0  0  0  0  0  0  0  0  0
    6.7130   -2.4750    0.0000 O   0  0  0  0  0  0  0  0  0  0  0  0
    6.7130   -3.3000    0.0000 C   0  0  0  0  0  0  0  0  0  0  0  0
    7.3804   -3.7849    0.0000 H   0  0  0  0  0  0  0  0  0  0  0  0
    5.9283   -3.5549    0.0000 N   0  0  0  0  0  0  0  0  0  0  0  0
    4.6184   -4.3164    0.0000 C   0  0  0  0  0  0  0  0  0  0  0  0
    5.4434   -4.3164    0.0000 C   0  0  0  0  0  0  0  0  0  0  0  0
    5.0465   -3.5932    0.0000 H   0  0  0  0  0  0  0  0  0  0  0  0
    5.8559   -5.0309    0.0000 C   0  0  0  0  0  0  0  0  0  0  0  0
    6.6809   -5.0309    0.0000 H   0  0  0  0  0  0  0  0  0  0  0  0
    5.4434   -5.7454    0.0000 C   0  0  0  0  0  0  0  0  0  0  0  0
    5.8559   -6.4599    0.0000 C   0  0  0  0  0  0  0  0  0  0  0  0
    6.2684   -7.1743    0.0000 C   0  0  0  0  0  0  0  0  0  0  0  0
    5.5539   -7.5868    0.0000 H   0  0  0  0  0  0  0  0  0  0  0  0
    6.6809   -7.8888    0.0000 H   0  0  0  0  0  0  0  0  0  0  0  0
    6.9829   -6.7618    0.0000 H   0  0  0  0  0  0  0  0  0  0  0  0
    6.5704   -6.0474    0.0000 C   0  0  0  0  0  0  0  0  0  0  0  0
    7.3883   -5.9397    0.0000 H   0  0  0  0  0  0  0  0  0  0  0  0
    6.7839   -5.2505    0.0000 H   0  0  0  0  0  0  0  0  0  0  0  0
    5.9159   -5.5451    0.0000 H   0  0  0  0  0  0  0  0  0  0  0  0
    5.1414   -6.8724    0.0000 C   0  0  0  0  0  0  0  0  0  0  0  0
    5.0338   -6.0544    0.0000 H   0  0  0  0  0  0  0  0  0  0  0  0
    4.3446   -6.6588    0.0000 H   0  0  0  0  0  0  0  0  0  0  0  0
    4.6392   -7.5269    0.0000 H   0  0  0  0  0  0  0  0  0  0  0  0
    4.6184   -5.7454    0.0000 C   0  0  0  0  0  0  0  0  0  0  0  0
    3.7990   -5.8410    0.0000 H   0  0  0  0  0  0  0  0  0  0  0  0
    4.2059   -5.0309    0.0000 C   0  0  0  0  0  0  0  0  0  0  0  0
    5.0309   -5.0309    0.0000 H   0  0  0  0  0  0  0  0  0  0  0  0
    2.5559   -3.6020    0.0000 H   0  0  0  0  0  0  0  0  0  0  0  0
    2.1326   -3.7124    0.0000 H   0  0  0  0  0  0  0  0  0  0  0  0
    1.2816   -2.8649    0.0000 H   0  0  0  0  0  0  0  0  0  0  0  0
    0.9104   -2.0868    0.0000 C   0  0  0  0  0  0  0  0  0  0  0  0
    0.0864   -2.0472    0.0000 H   0  0  0  0  0  0  0  0  0  0  0  0
    0.2808   -2.6198    0.0000 H   0  0  0  0  0  0  0  0  0  0  0  0
    0.7389   -1.2798    0.0000 N   0  0  0  0  0  0  0  0  0  0  0  0
   -0.0148   -0.9443    0.0000 C   0  0  0  0  0  0  0  0  0  0  0  0
   -0.6822   -1.4292    0.0000 O   0  0  0  0  0  0  0  0  0  0  0  0
   -0.1010   -0.1238    0.0000 O   0  0  0  0  0  0  0  0  0  0  0  0
   -0.8547    0.2118    0.0000 C   0  0  0  0  0  0  0  0  0  0  0  0
   -1.6084    0.5473    0.0000 C   0  0  0  0  0  0  0  0  0  0  0  0
   -1.2728    1.3010    0.0000 H   0  0  0  0  0  0  0  0  0  0  0  0
   -2.3620    0.8829    0.0000 H   0  0  0  0  0  0  0  0  0  0  0  0
   -1.9439   -0.2063    0.0000 H   0  0  0  0  0  0  0  0  0  0  0  0
   -0.5191    0.9654    0.0000 C   0  0  0  0  0  0  0  0  0  0  0  0
   -0.1836    0.2118    0.0000 H   0  0  0  0  0  0  0  0  0  0  0  0
    0.2655    0.7105    0.0000 H   0  0  0  0  0  0  0  0  0  0  0  0
   -0.5623    1.7893    0.0000 H   0  0  0  0  0  0  0  0  0  0  0  0
   -1.1902   -0.5419    0.0000 C   0  0  0  0  0  0  0  0  0  0  0  0
   -1.7887   -1.1098    0.0000 H   0  0  0  0  0  0  0  0  0  0  0  0
   -0.8946   -1.3121    0.0000 H   0  0  0  0  0  0  0  0  0  0  0  0
   -0.3655   -0.5635    0.0000 H   0  0  0  0  0  0  0  0  0  0  0  0
    0.7615   -0.4180    0.0000 H   0  0  0  0  0  0  0  0  0  0  0  0
    1.7789    1.1723    0.0000 H   0  0  0  0  0  0  0  0  0  0  0  0
    1.0446    2.0790    0.0000 H   0  0  0  0  0  0  0  0  0  0  0  0
    0.1379    1.3448    0.0000 H   0  0  0  0  0  0  0  0  0  0  0  0
  1  2  1  0  0  0  0
  2  3  1  0  0  0  0
  3  4  2  0  0  0  0
  3  5  1  0  0  0  0
  5  6  1  0  0  0  0
  6  7  1  0  0  0  0
  6  8  1  0  0  0  0
  6  9  1  0  0  0  0
  9 10  1  0  0  0  0
 10 11  1  0  0  0  0
 11 12  2  0  0  0  0
 11 13  1  0  0  0  0
 13 14  1  0  0  0  0
 14 15  2  0  0  0  0
 15 16  1  0  0  0  0
 15 17  1  0  0  0  0
 17 18  1  0  0  0  0
 17 19  2  0  0  0  0
 19 20  1  0  0  0  0
 19 21  1  0  0  0  0
 21 22  2  0  0  0  0
 14 22  1  0  0  0  0
 22 23  1  0  0  0  0
 13 24  1  0  0  0  0
 24 25  1  0  0  0  0
 25 26  2  0  0  0  0
 25 27  1  0  0  0  0
 27 28  2  0  0  0  0
 28 29  1  0  0  0  0
 28 30  1  0  0  0  0
 30 31  1  0  0  0  0
 31 32  1  0  0  0  0
 31 33  2  0  0  0  0
 27 33  1  0  0  0  0
 24 34  1  0  0  0  0
 34 35  2  0  0  0  0
 35 36  1  0  0  0  0
 35 37  1  0  0  0  0
 37 38  1  0  0  0  0
 37 39  2  0  0  0  0
 39 40  1  0  0  0  0
 40 41  1  0  0  0  0
 41 42  1  0  0  0  0
 41 43  1  0  0  0  0
 41 44  1  0  0  0  0
 40 45  1  0  0  0  0
 45 46  1  0  0  0  0
 45 47  1  0  0  0  0
 45 48  1  0  0  0  0
 40 49  1  0  0  0  0
 49 50  1  0  0  0  0
 49 51  1  0  0  0  0
 49 52  1  0  0  0  0
 39 53  1  0  0  0  0
 53 54  1  0  0  0  0
 53 55  2  0  0  0  0
 34 55  1  0  0  0  0
 55 56  1  0  0  0  0
 13 57  1  0  0  0  0
 10 58  1  0  0  0  0
  9 59  1  0  0  0  0
  9 60  1  0  0  0  0
 60 61  1  0  0  0  0
 60 62  1  0  0  0  0
 60 63  1  0  0  0  0
  5 63  1  0  0  0  0
 63 64  1  0  0  0  0
 64 65  2  0  0  0  0
 64 66  1  0  0  0  0
 66 67  1  0  0  0  0
 67 68  1  0  0  0  0
 68 69  1  0  0  0  0
 68 70  1  0  0  0  0
 68 71  1  0  0  0  0
 67 72  1  0  0  0  0
 72 73  1  0  0  0  0
 72 74  1  0  0  0  0
 72 75  1  0  0  0  0
 67 76  1  0  0  0  0
 76 77  1  0  0  0  0
 76 78  1  0  0  0  0
 76 79  1  0  0  0  0
  5 80  1  0  0  0  0
  1 81  1  0  0  0  0
  1 82  1  0  0  0  0
  1 83  1  0  0  0  0
M  END
> <Potency>
6.82414126439963

> <pIC50>
5.165951991554154

> <Outcome>
Active

> <is_active>
1

$$$$

  Mrv1921 08232120312D          

 70 74  0  0  0  0            999 V2000
    2.1656   -3.3529    0.0000 C   0  0  0  0  0  0  0  0  0  0  0  0
    1.8835   -2.5777    0.0000 C   0  0  0  0  0  0  0  0  0  0  0  0
    1.0710   -2.4344    0.0000 C   0  0  0  0  0  0  0  0  0  0  0  0
    0.3135   -2.7612    0.0000 H   0  0  0  0  0  0  0  0  0  0  0  0
    0.8807   -3.2372    0.0000 H   0  0  0  0  0  0  0  0  0  0  0  0
    0.7888   -1.6592    0.0000 N   0  0  0  0  0  0  0  0  0  0  0  0
   -0.0236   -1.5159    0.0000 S   0  0  0  0  0  0  0  0  0  0  0  0
   -0.8361   -1.3727    0.0000 C   0  0  0  0  0  0  0  0  0  0  0  0
   -0.6928   -0.5602    0.0000 H   0  0  0  0  0  0  0  0  0  0  0  0
   -1.6486   -1.2294    0.0000 H   0  0  0  0  0  0  0  0  0  0  0  0
   -0.9794   -2.1851    0.0000 H   0  0  0  0  0  0  0  0  0  0  0  0
   -0.1669   -2.3284    0.0000 O   0  0  0  0  0  0  0  0  0  0  0  0
    0.1196   -0.7035    0.0000 O   0  0  0  0  0  0  0  0  0  0  0  0
    1.3191   -1.0272    0.0000 C   0  0  0  0  0  0  0  0  0  0  0  0
    1.4149   -0.2078    0.0000 H   0  0  0  0  0  0  0  0  0  0  0  0
    0.7190   -0.4611    0.0000 H   0  0  0  0  0  0  0  0  0  0  0  0
    2.1316   -1.1705    0.0000 C   0  0  0  0  0  0  0  0  0  0  0  0
    2.8891   -0.8437    0.0000 H   0  0  0  0  0  0  0  0  0  0  0  0
    2.3219   -0.3677    0.0000 H   0  0  0  0  0  0  0  0  0  0  0  0
    2.4138   -1.9457    0.0000 C   0  0  0  0  0  0  0  0  0  0  0  0
    3.2262   -2.0890    0.0000 N   0  0  0  0  0  0  0  0  0  0  0  0
    3.7565   -1.4570    0.0000 C   0  0  0  0  0  0  0  0  0  0  0  0
    3.4744   -0.6817    0.0000 O   0  0  0  0  0  0  0  0  0  0  0  0
    4.5690   -1.6002    0.0000 C   0  0  0  0  0  0  0  0  0  0  0  0
    5.0993   -0.9683    0.0000 C   0  0  0  0  0  0  0  0  0  0  0  0
    5.6296   -1.6002    0.0000 C   0  0  0  0  0  0  0  0  0  0  0  0
    6.4421   -1.4570    0.0000 O   0  0  0  0  0  0  0  0  0  0  0  0
    5.3474   -2.3755    0.0000 N   0  0  0  0  0  0  0  0  0  0  0  0
    5.8777   -3.0075    0.0000 C   0  0  0  0  0  0  0  0  0  0  0  0
    6.6902   -2.8642    0.0000 C   0  0  0  0  0  0  0  0  0  0  0  0
    6.9724   -2.0890    0.0000 H   0  0  0  0  0  0  0  0  0  0  0  0
    7.2205   -3.4962    0.0000 N   0  0  0  0  0  0  0  0  0  0  0  0
    6.9383   -4.2715    0.0000 C   0  0  0  0  0  0  0  0  0  0  0  0
    7.4686   -4.9034    0.0000 H   0  0  0  0  0  0  0  0  0  0  0  0
    6.1259   -4.4147    0.0000 C   0  0  0  0  0  0  0  0  0  0  0  0
    5.8437   -5.1900    0.0000 C   0  0  0  0  0  0  0  0  0  0  0  0
    5.0312   -5.3332    0.0000 C   0  0  0  0  0  0  0  0  0  0  0  0
    4.5009   -4.7012    0.0000 C   0  0  0  0  0  0  0  0  0  0  0  0
    4.7831   -3.9260    0.0000 C   0  0  0  0  0  0  0  0  0  0  0  0
    3.9995   -3.6679    0.0000 H   0  0  0  0  0  0  0  0  0  0  0  0
    5.5956   -3.7827    0.0000 C   0  0  0  0  0  0  0  0  0  0  0  0
    3.6885   -4.8445    0.0000 H   0  0  0  0  0  0  0  0  0  0  0  0
    4.7491   -6.1085    0.0000 H   0  0  0  0  0  0  0  0  0  0  0  0
    6.3740   -5.8219    0.0000 H   0  0  0  0  0  0  0  0  0  0  0  0
    5.0177   -3.1318    0.0000 H   0  0  0  0  0  0  0  0  0  0  0  0
    4.3848   -0.5558    0.0000 C   0  0  0  0  0  0  0  0  0  0  0  0
    4.2265   -1.3654    0.0000 H   0  0  0  0  0  0  0  0  0  0  0  0
    5.0993   -0.1433    0.0000 H   0  0  0  0  0  0  0  0  0  0  0  0
    4.3848    0.2692    0.0000 C   0  0  0  0  0  0  0  0  0  0  0  0
    3.9315    0.9585    0.0000 H   0  0  0  0  0  0  0  0  0  0  0  0
    3.5612    0.3172    0.0000 H   0  0  0  0  0  0  0  0  0  0  0  0
    5.0993    0.6817    0.0000 O   0  0  0  0  0  0  0  0  0  0  0  0
    5.8138    0.2692    0.0000 C   0  0  0  0  0  0  0  0  0  0  0  0
    6.5282    0.6817    0.0000 C   0  0  0  0  0  0  0  0  0  0  0  0
    7.2427    0.2692    0.0000 C   0  0  0  0  0  0  0  0  0  0  0  0
    7.2427   -0.5558    0.0000 C   0  0  0  0  0  0  0  0  0  0  0  0
    7.9572   -0.9683    0.0000 Cl  0  0  0  0  0  0  0  0  0  0  0  0
    6.5282   -0.9683    0.0000 C   0  0  0  0  0  0  0  0  0  0  0  0
    7.2040   -1.4415    0.0000 H   0  0  0  0  0  0  0  0  0  0  0  0
    5.8138   -0.5558    0.0000 C   0  0  0  0  0  0  0  0  0  0  0  0
    7.9572    0.6817    0.0000 H   0  0  0  0  0  0  0  0  0  0  0  0
    6.5282    1.5067    0.0000 H   0  0  0  0  0  0  0  0  0  0  0  0
    4.4732   -2.4197    0.0000 H   0  0  0  0  0  0  0  0  0  0  0  0
    5.1691   -2.1664    0.0000 H   0  0  0  0  0  0  0  0  0  0  0  0
    3.8582   -2.6193    0.0000 H   0  0  0  0  0  0  0  0  0  0  0  0
    1.6013   -1.8025    0.0000 H   0  0  0  0  0  0  0  0  0  0  0  0
    2.6959   -2.7210    0.0000 H   0  0  0  0  0  0  0  0  0  0  0  0
    1.3904   -3.6351    0.0000 H   0  0  0  0  0  0  0  0  0  0  0  0
    2.4478   -4.1282    0.0000 H   0  0  0  0  0  0  0  0  0  0  0  0
    2.9409   -3.0708    0.0000 H   0  0  0  0  0  0  0  0  0  0  0  0
  1  2  1  0  0  0  0
  2  3  1  0  0  0  0
  3  4  1  0  0  0  0
  3  5  1  0  0  0  0
  3  6  1  0  0  0  0
  6  7  1  0  0  0  0
  7  8  1  0  0  0  0
  8  9  1  0  0  0  0
  8 10  1  0  0  0  0
  8 11  1  0  0  0  0
  7 12  2  0  0  0  0
  7 13  2  0  0  0  0
  6 14  1  0  0  0  0
 14 15  1  0  0  0  0
 14 16  1  0  0  0  0
 14 17  1  0  0  0  0
 17 18  1  0  0  0  0
 17 19  1  0  0  0  0
 17 20  1  0  0  0  0
  2 20  1  0  0  0  0
 20 21  1  0  0  0  0
 21 22  1  0  0  0  0
 22 23  2  0  0  0  0
 22 24  1  0  0  0  0
 24 25  1  0  0  0  0
 25 26  1  0  0  0  0
 26 27  2  0  0  0  0
 26 28  1  0  0  0  0
 28 29  1  0  0  0  0
 29 30  2  0  0  0  0
 30 31  1  0  0  0  0
 30 32  1  0  0  0  0
 32 33  2  0  0  0  0
 33 34  1  0  0  0  0
 33 35  1  0  0  0  0
 35 36  2  0  0  0  0
 36 37  1  0  0  0  0
 37 38  2  0  0  0  0
 38 39  1  0  0  0  0
 39 40  1  0  0  0  0
 39 41  2  0  0  0  0
 29 41  1  0  0  0  0
 35 41  1  0  0  0  0
 38 42  1  0  0  0  0
 37 43  1  0  0  0  0
 36 44  1  0  0  0  0
 28 45  1  0  0  0  0
 25 46  1  0  0  0  0
 46 47  1  0  0  0  0
 46 48  1  0  0  0  0
 46 49  1  0  0  0  0
 49 50  1  0  0  0  0
 49 51  1  0  0  0  0
 49 52  1  0  0  0  0
 52 53  1  0  0  0  0
 53 54  2  0  0  0  0
 54 55  1  0  0  0  0
 55 56  2  0  0  0  0
 56 57  1  0  0  0  0
 56 58  1  0  0  0  0
 58 59  1  0  0  0  0
 58 60  2  0  0  0  0
 25 60  1  0  0  0  0
 53 60  1  0  0  0  0
 55 61  1  0  0  0  0
 54 62  1  0  0  0  0
 24 63  1  0  0  0  0
 24 64  1  0  0  0  0
 21 65  1  0  0  0  0
 20 66  1  0  0  0  0
  2 67  1  0  0  0  0
  1 68  1  0  0  0  0
  1 69  1  0  0  0  0
  1 70  1  0  0  0  0
M  END
> <Potency>
2.78593776777608

> <pIC50>
5.555028589065431

> <Outcome>
Active

> <is_active>
1

$$$$

  Mrv1921 08232120312D          

 53 56  0  0  0  0            999 V2000
   -2.8579   -6.6000    0.0000 C   0  0  0  0  0  0  0  0  0  0  0  0
   -2.1434   -6.1875    0.0000 C   0  0  0  0  0  0  0  0  0  0  0  0
   -1.4289   -6.6000    0.0000 O   0  0  0  0  0  0  0  0  0  0  0  0
   -2.1434   -5.3625    0.0000 N   0  0  0  0  0  0  0  0  0  0  0  0
   -1.4289   -4.9500    0.0000 C   0  0  0  0  0  0  0  0  0  0  0  0
   -1.4289   -4.1250    0.0000 C   0  0  0  0  0  0  0  0  0  0  0  0
   -2.1434   -3.7125    0.0000 H   0  0  0  0  0  0  0  0  0  0  0  0
   -0.7145   -3.7125    0.0000 C   0  0  0  0  0  0  0  0  0  0  0  0
   -0.7145   -2.8875    0.0000 H   0  0  0  0  0  0  0  0  0  0  0  0
    0.0000   -4.1250    0.0000 C   0  0  0  0  0  0  0  0  0  0  0  0
    0.7145   -3.7125    0.0000 N   0  0  0  0  0  0  0  0  0  0  0  0
    1.4289   -4.1250    0.0000 C   0  0  0  0  0  0  0  0  0  0  0  0
    1.4289   -4.9500    0.0000 C   0  0  0  0  0  0  0  0  0  0  0  0
    2.1434   -5.3625    0.0000 C   0  0  0  0  0  0  0  0  0  0  0  0
    2.8579   -4.9500    0.0000 H   0  0  0  0  0  0  0  0  0  0  0  0
    2.1434   -6.1875    0.0000 C   0  0  0  0  0  0  0  0  0  0  0  0
    2.8579   -6.6000    0.0000 H   0  0  0  0  0  0  0  0  0  0  0  0
    1.4289   -6.6000    0.0000 C   0  0  0  0  0  0  0  0  0  0  0  0
    1.4289   -7.4250    0.0000 H   0  0  0  0  0  0  0  0  0  0  0  0
    0.7145   -6.1875    0.0000 C   0  0  0  0  0  0  0  0  0  0  0  0
    0.0000   -6.6000    0.0000 Cl  0  0  0  0  0  0  0  0  0  0  0  0
    0.7145   -5.3625    0.0000 C   0  0  0  0  0  0  0  0  0  0  0  0
    0.7145   -4.5375    0.0000 H   0  0  0  0  0  0  0  0  0  0  0  0
    2.2525   -4.0770    0.0000 H   0  0  0  0  0  0  0  0  0  0  0  0
    1.8823   -3.4357    0.0000 H   0  0  0  0  0  0  0  0  0  0  0  0
    0.7145   -2.8875    0.0000 C   0  0  0  0  0  0  0  0  0  0  0  0
    0.0000   -2.4750    0.0000 O   0  0  0  0  0  0  0  0  0  0  0  0
    1.4289   -2.4750    0.0000 C   0  0  0  0  0  0  0  0  0  0  0  0
    1.4289   -1.6500    0.0000 C   0  0  0  0  0  0  0  0  0  0  0  0
    0.7145   -1.2375    0.0000 C   0  0  0  0  0  0  0  0  0  0  0  0
    0.0000   -1.6500    0.0000 H   0  0  0  0  0  0  0  0  0  0  0  0
    0.7145   -0.4125    0.0000 N   0  0  0  0  0  0  0  0  0  0  0  0
    1.4289    0.0000    0.0000 C   0  0  0  0  0  0  0  0  0  0  0  0
    1.4289    0.8250    0.0000 H   0  0  0  0  0  0  0  0  0  0  0  0
    2.1434   -0.4125    0.0000 C   0  0  0  0  0  0  0  0  0  0  0  0
    2.8579    0.0000    0.0000 C   0  0  0  0  0  0  0  0  0  0  0  0
    3.5724   -0.4125    0.0000 C   0  0  0  0  0  0  0  0  0  0  0  0
    3.5724   -1.2375    0.0000 C   0  0  0  0  0  0  0  0  0  0  0  0
    2.8579   -1.6500    0.0000 C   0  0  0  0  0  0  0  0  0  0  0  0
    2.8579   -2.4750    0.0000 H   0  0  0  0  0  0  0  0  0  0  0  0
    2.1434   -1.2375    0.0000 C   0  0  0  0  0  0  0  0  0  0  0  0
    4.2868   -1.6500    0.0000 H   0  0  0  0  0  0  0  0  0  0  0  0
    4.2868   -0.0000    0.0000 H   0  0  0  0  0  0  0  0  0  0  0  0
    2.8579    0.8250    0.0000 H   0  0  0  0  0  0  0  0  0  0  0  0
    1.8823   -3.1643    0.0000 H   0  0  0  0  0  0  0  0  0  0  0  0
    2.2525   -2.5230    0.0000 H   0  0  0  0  0  0  0  0  0  0  0  0
    0.0000   -4.9500    0.0000 C   0  0  0  0  0  0  0  0  0  0  0  0
    0.0000   -5.7750    0.0000 H   0  0  0  0  0  0  0  0  0  0  0  0
   -0.7145   -5.3625    0.0000 N   0  0  0  0  0  0  0  0  0  0  0  0
   -2.8579   -4.9500    0.0000 H   0  0  0  0  0  0  0  0  0  0  0  0
   -3.2704   -5.8855    0.0000 H   0  0  0  0  0  0  0  0  0  0  0  0
   -3.5724   -7.0125    0.0000 H   0  0  0  0  0  0  0  0  0  0  0  0
   -2.4454   -7.3145    0.0000 H   0  0  0  0  0  0  0  0  0  0  0  0
  1  2  1  0  0  0  0
  2  3  2  0  0  0  0
  2  4  1  0  0  0  0
  4  5  1  0  0  0  0
  5  6  2  0  0  0  0
  6  7  1  0  0  0  0
  6  8  1  0  0  0  0
  8  9  1  0  0  0  0
  8 10  2  0  0  0  0
 10 11  1  0  0  0  0
 11 12  1  0  0  0  0
 12 13  1  0  0  0  0
 13 14  2  0  0  0  0
 14 15  1  0  0  0  0
 14 16  1  0  0  0  0
 16 17  1  0  0  0  0
 16 18  2  0  0  0  0
 18 19  1  0  0  0  0
 18 20  1  0  0  0  0
 20 21  1  0  0  0  0
 20 22  2  0  0  0  0
 13 22  1  0  0  0  0
 22 23  1  0  0  0  0
 12 24  1  0  0  0  0
 12 25  1  0  0  0  0
 11 26  1  0  0  0  0
 26 27  2  0  0  0  0
 26 28  1  0  0  0  0
 28 29  1  0  0  0  0
 29 30  2  0  0  0  0
 30 31  1  0  0  0  0
 30 32  1  0  0  0  0
 32 33  2  0  0  0  0
 33 34  1  0  0  0  0
 33 35  1  0  0  0  0
 35 36  2  0  0  0  0
 36 37  1  0  0  0  0
 37 38  2  0  0  0  0
 38 39  1  0  0  0  0
 39 40  1  0  0  0  0
 39 41  2  0  0  0  0
 29 41  1  0  0  0  0
 35 41  1  0  0  0  0
 38 42  1  0  0  0  0
 37 43  1  0  0  0  0
 36 44  1  0  0  0  0
 28 45  1  0  0  0  0
 28 46  1  0  0  0  0
 10 47  1  0  0  0  0
 47 48  1  0  0  0  0
 47 49  2  0  0  0  0
  5 49  1  0  0  0  0
  4 50  1  0  0  0  0
  1 51  1  0  0  0  0
  1 52  1  0  0  0  0
  1 53  1  0  0  0  0
M  END
> <Potency>
0.667371124689378

> <pIC50>
6.175632588000909

> <Outcome>
Active

> <is_active>
1

$$$$

  Mrv1921 08232120312D          

 40 43  0  0  0  0            999 V2000
    0.0000   -2.4750    0.0000 O   0  0  0  0  0  0  0  0  0  0  0  0
    0.7145   -2.8875    0.0000 C   0  0  0  0  0  0  0  0  0  0  0  0
    0.7145   -3.7125    0.0000 C   0  0  0  0  0  0  0  0  0  0  0  0
    0.0000   -4.1250    0.0000 C   0  0  0  0  0  0  0  0  0  0  0  0
    0.0000   -4.9500    0.0000 C   0  0  0  0  0  0  0  0  0  0  0  0
    0.7145   -5.3625    0.0000 H   0  0  0  0  0  0  0  0  0  0  0  0
   -0.7145   -5.3625    0.0000 C   0  0  0  0  0  0  0  0  0  0  0  0
   -0.7145   -6.1875    0.0000 Cl  0  0  0  0  0  0  0  0  0  0  0  0
   -1.4289   -4.9500    0.0000 C   0  0  0  0  0  0  0  0  0  0  0  0
   -2.1434   -5.3625    0.0000 H   0  0  0  0  0  0  0  0  0  0  0  0
   -1.4289   -4.1250    0.0000 C   0  0  0  0  0  0  0  0  0  0  0  0
   -2.1434   -3.7125    0.0000 C   0  0  0  0  0  0  0  0  0  0  0  0
   -2.8971   -4.0481    0.0000 N   0  0  0  0  0  0  0  0  0  0  0  0
   -3.4491   -3.4350    0.0000 N   0  0  0  0  0  0  0  0  0  0  0  0
   -3.0366   -2.7205    0.0000 C   0  0  0  0  0  0  0  0  0  0  0  0
   -3.3722   -1.9668    0.0000 H   0  0  0  0  0  0  0  0  0  0  0  0
   -2.2296   -2.8920    0.0000 N   0  0  0  0  0  0  0  0  0  0  0  0
   -1.6166   -2.3400    0.0000 H   0  0  0  0  0  0  0  0  0  0  0  0
   -0.7145   -3.7125    0.0000 C   0  0  0  0  0  0  0  0  0  0  0  0
   -0.7145   -2.8875    0.0000 H   0  0  0  0  0  0  0  0  0  0  0  0
    1.1678   -4.4018    0.0000 H   0  0  0  0  0  0  0  0  0  0  0  0
    1.5381   -3.7605    0.0000 H   0  0  0  0  0  0  0  0  0  0  0  0
    1.4289   -2.4750    0.0000 N   0  0  0  0  0  0  0  0  0  0  0  0
    1.4289   -1.6500    0.0000 C   0  0  0  0  0  0  0  0  0  0  0  0
    0.7145   -1.2375    0.0000 C   0  0  0  0  0  0  0  0  0  0  0  0
    0.0000   -1.6500    0.0000 H   0  0  0  0  0  0  0  0  0  0  0  0
    0.7145   -0.4125    0.0000 N   0  0  0  0  0  0  0  0  0  0  0  0
    1.4289    0.0000    0.0000 C   0  0  0  0  0  0  0  0  0  0  0  0
    1.4289    0.8250    0.0000 H   0  0  0  0  0  0  0  0  0  0  0  0
    2.1434   -0.4125    0.0000 C   0  0  0  0  0  0  0  0  0  0  0  0
    2.8579    0.0000    0.0000 C   0  0  0  0  0  0  0  0  0  0  0  0
    3.5724   -0.4125    0.0000 C   0  0  0  0  0  0  0  0  0  0  0  0
    3.5724   -1.2375    0.0000 C   0  0  0  0  0  0  0  0  0  0  0  0
    2.8579   -1.6500    0.0000 C   0  0  0  0  0  0  0  0  0  0  0  0
    2.8579   -2.4750    0.0000 H   0  0  0  0  0  0  0  0  0  0  0  0
    2.1434   -1.2375    0.0000 C   0  0  0  0  0  0  0  0  0  0  0  0
    4.2868   -1.6500    0.0000 H   0  0  0  0  0  0  0  0  0  0  0  0
    4.2868   -0.0000    0.0000 H   0  0  0  0  0  0  0  0  0  0  0  0
    2.8579    0.8250    0.0000 H   0  0  0  0  0  0  0  0  0  0  0  0
    2.1434   -2.8875    0.0000 H   0  0  0  0  0  0  0  0  0  0  0  0
  1  2  2  0  0  0  0
  2  3  1  0  0  0  0
  3  4  1  0  0  0  0
  4  5  2  0  0  0  0
  5  6  1  0  0  0  0
  5  7  1  0  0  0  0
  7  8  1  0  0  0  0
  7  9  2  0  0  0  0
  9 10  1  0  0  0  0
  9 11  1  0  0  0  0
 11 12  1  0  0  0  0
 12 13  2  0  0  0  0
 13 14  1  0  0  0  0
 14 15  2  0  0  0  0
 15 16  1  0  0  0  0
 15 17  1  0  0  0  0
 12 17  1  0  0  0  0
 17 18  1  0  0  0  0
 11 19  2  0  0  0  0
  4 19  1  0  0  0  0
 19 20  1  0  0  0  0
  3 21  1  0  0  0  0
  3 22  1  0  0  0  0
  2 23  1  0  0  0  0
 23 24  1  0  0  0  0
 24 25  2  0  0  0  0
 25 26  1  0  0  0  0
 25 27  1  0  0  0  0
 27 28  2  0  0  0  0
 28 29  1  0  0  0  0
 28 30  1  0  0  0  0
 30 31  2  0  0  0  0
 31 32  1  0  0  0  0
 32 33  2  0  0  0  0
 33 34  1  0  0  0  0
 34 35  1  0  0  0  0
 34 36  2  0  0  0  0
 24 36  1  0  0  0  0
 30 36  1  0  0  0  0
 33 37  1  0  0  0  0
 32 38  1  0  0  0  0
 31 39  1  0  0  0  0
 23 40  1  0  0  0  0
M  END
> <Potency>
5.29593810074718

> <pIC50>
5.276057099599519

> <Outcome>
Active

> <is_active>
1

$$$$

  Mrv1921 08232120312D          

 48 51  0  0  0  0            999 V2000
   -3.6610   -4.5769    0.0000 C   0  0  0  0  0  0  0  0  0  0  0  0
   -3.4060   -3.7923    0.0000 N   0  0  0  0  0  0  0  0  0  0  0  0
   -3.9580   -3.1792    0.0000 C   0  0  0  0  0  0  0  0  0  0  0  0
   -3.3450   -2.6271    0.0000 H   0  0  0  0  0  0  0  0  0  0  0  0
   -4.5101   -2.5661    0.0000 H   0  0  0  0  0  0  0  0  0  0  0  0
   -4.5711   -3.7312    0.0000 H   0  0  0  0  0  0  0  0  0  0  0  0
   -2.5990   -3.6207    0.0000 C   0  0  0  0  0  0  0  0  0  0  0  0
   -2.3441   -2.8361    0.0000 C   0  0  0  0  0  0  0  0  0  0  0  0
   -2.8961   -2.2230    0.0000 H   0  0  0  0  0  0  0  0  0  0  0  0
   -1.5371   -2.6646    0.0000 C   0  0  0  0  0  0  0  0  0  0  0  0
   -1.2822   -1.8800    0.0000 H   0  0  0  0  0  0  0  0  0  0  0  0
   -0.9851   -3.2777    0.0000 C   0  0  0  0  0  0  0  0  0  0  0  0
   -0.1781   -3.1062    0.0000 N   0  0  0  0  0  0  0  0  0  0  0  0
    0.3739   -3.7192    0.0000 C   0  0  0  0  0  0  0  0  0  0  0  0
    0.1190   -4.5039    0.0000 C   0  0  0  0  0  0  0  0  0  0  0  0
    0.6039   -5.1713    0.0000 C   0  0  0  0  0  0  0  0  0  0  0  0
    1.4289   -5.1713    0.0000 H   0  0  0  0  0  0  0  0  0  0  0  0
    0.1190   -5.8387    0.0000 S   0  0  0  0  0  0  0  0  0  0  0  0
   -0.6657   -5.5838    0.0000 C   0  0  0  0  0  0  0  0  0  0  0  0
   -1.3331   -6.0687    0.0000 H   0  0  0  0  0  0  0  0  0  0  0  0
   -0.6657   -4.7588    0.0000 N   0  0  0  0  0  0  0  0  0  0  0  0
    1.1720   -3.9281    0.0000 H   0  0  0  0  0  0  0  0  0  0  0  0
    1.0181   -3.2038    0.0000 H   0  0  0  0  0  0  0  0  0  0  0  0
    0.0768   -2.3215    0.0000 C   0  0  0  0  0  0  0  0  0  0  0  0
   -0.4752   -1.7084    0.0000 O   0  0  0  0  0  0  0  0  0  0  0  0
    0.8838   -2.1500    0.0000 C   0  0  0  0  0  0  0  0  0  0  0  0
    1.1387   -1.3654    0.0000 N   0  0  0  0  0  0  0  0  0  0  0  0
    0.6538   -0.6979    0.0000 N   0  0  0  0  0  0  0  0  0  0  0  0
    1.1387   -0.0305    0.0000 N   0  0  0  0  0  0  0  0  0  0  0  0
    1.9233   -0.2854    0.0000 C   0  0  0  0  0  0  0  0  0  0  0  0
    2.6378    0.1271    0.0000 C   0  0  0  0  0  0  0  0  0  0  0  0
    3.3523   -0.2854    0.0000 C   0  0  0  0  0  0  0  0  0  0  0  0
    3.3523   -1.1104    0.0000 C   0  0  0  0  0  0  0  0  0  0  0  0
    2.6378   -1.5229    0.0000 C   0  0  0  0  0  0  0  0  0  0  0  0
    2.6378   -2.3479    0.0000 H   0  0  0  0  0  0  0  0  0  0  0  0
    1.9233   -1.1104    0.0000 C   0  0  0  0  0  0  0  0  0  0  0  0
    4.0668   -1.5229    0.0000 H   0  0  0  0  0  0  0  0  0  0  0  0
    4.0668    0.1271    0.0000 H   0  0  0  0  0  0  0  0  0  0  0  0
    2.6378    0.9521    0.0000 H   0  0  0  0  0  0  0  0  0  0  0  0
    1.1019   -2.9456    0.0000 H   0  0  0  0  0  0  0  0  0  0  0  0
    1.6523   -2.4501    0.0000 H   0  0  0  0  0  0  0  0  0  0  0  0
   -1.2400   -4.0623    0.0000 C   0  0  0  0  0  0  0  0  0  0  0  0
   -1.5120   -4.8412    0.0000 H   0  0  0  0  0  0  0  0  0  0  0  0
   -2.0470   -4.2338    0.0000 C   0  0  0  0  0  0  0  0  0  0  0  0
   -2.6631   -4.7825    0.0000 H   0  0  0  0  0  0  0  0  0  0  0  0
   -4.4456   -4.3219    0.0000 H   0  0  0  0  0  0  0  0  0  0  0  0
   -3.9159   -5.3615    0.0000 H   0  0  0  0  0  0  0  0  0  0  0  0
   -2.8763   -4.8318    0.0000 H   0  0  0  0  0  0  0  0  0  0  0  0
  1  2  1  0  0  0  0
  2  3  1  0  0  0  0
  3  4  1  0  0  0  0
  3  5  1  0  0  0  0
  3  6  1  0  0  0  0
  2  7  1  0  0  0  0
  7  8  2  0  0  0  0
  8  9  1  0  0  0  0
  8 10  1  0  0  0  0
 10 11  1  0  0  0  0
 10 12  2  0  0  0  0
 12 13  1  0  0  0  0
 13 14  1  0  0  0  0
 14 15  1  0  0  0  0
 15 16  2  0  0  0  0
 16 17  1  0  0  0  0
 16 18  1  0  0  0  0
 18 19  1  0  0  0  0
 19 20  1  0  0  0  0
 19 21  2  0  0  0  0
 15 21  1  0  0  0  0
 14 22  1  0  0  0  0
 14 23  1  0  0  0  0
 13 24  1  0  0  0  0
 24 25  2  0  0  0  0
 24 26  1  0  0  0  0
 26 27  1  0  0  0  0
 27 28  1  0  0  0  0
 28 29  2  0  0  0  0
 29 30  1  0  0  0  0
 30 31  2  0  0  0  0
 31 32  1  0  0  0  0
 32 33  2  0  0  0  0
 33 34  1  0  0  0  0
 34 35  1  0  0  0  0
 34 36  2  0  0  0  0
 27 36  1  0  0  0  0
 30 36  1  0  0  0  0
 33 37  1  0  0  0  0
 32 38  1  0  0  0  0
 31 39  1  0  0  0  0
 26 40  1  0  0  0  0
 26 41  1  0  0  0  0
 12 42  1  0  0  0  0
 42 43  1  0  0  0  0
 42 44  2  0  0  0  0
  7 44  1  0  0  0  0
 44 45  1  0  0  0  0
  1 46  1  0  0  0  0
  1 47  1  0  0  0  0
  1 48  1  0  0  0  0
M  END
> <Potency>
4.85167897949968

> <pIC50>
5.314107942769227

> <Outcome>
Active

> <is_active>
1

$$$$

  Mrv1921 08232120312D          

 45 46  0  0  0  0            999 V2000
    2.8579    1.6500    0.0000 N   0  0  0  0  0  0  0  0  0  0  0  0
    2.8579    0.8250    0.0000 S   0  0  0  0  0  0  0  0  0  0  0  0
    2.0329    0.8250    0.0000 O   0  0  0  0  0  0  0  0  0  0  0  0
    3.6829    0.8250    0.0000 O   0  0  0  0  0  0  0  0  0  0  0  0
    2.8579   -0.0000    0.0000 C   0  0  0  0  0  0  0  0  0  0  0  0
    2.1434   -0.4125    0.0000 C   0  0  0  0  0  0  0  0  0  0  0  0
    2.1434   -1.2375    0.0000 C   0  0  0  0  0  0  0  0  0  0  0  0
    2.8579   -1.6500    0.0000 C   0  0  0  0  0  0  0  0  0  0  0  0
    3.6829   -1.6500    0.0000 H   0  0  0  0  0  0  0  0  0  0  0  0
    2.8579   -2.4750    0.0000 C   0  0  0  0  0  0  0  0  0  0  0  0
    3.5724   -2.8875    0.0000 H   0  0  0  0  0  0  0  0  0  0  0  0
    2.1434   -2.8875    0.0000 C   0  0  0  0  0  0  0  0  0  0  0  0
    2.1434   -3.7125    0.0000 H   0  0  0  0  0  0  0  0  0  0  0  0
    1.4289   -2.4750    0.0000 C   0  0  0  0  0  0  0  0  0  0  0  0
    0.7145   -2.8875    0.0000 H   0  0  0  0  0  0  0  0  0  0  0  0
    1.4289   -1.6500    0.0000 C   0  0  0  0  0  0  0  0  0  0  0  0
    0.7145   -1.2375    0.0000 C   0  0  0  0  0  0  0  0  0  0  0  0
    0.7145   -0.4125    0.0000 N   0  0  0  0  0  0  0  0  0  0  0  0
    0.0000    0.0000    0.0000 C   0  0  0  0  0  0  0  0  0  0  0  0
   -0.8236   -0.0480    0.0000 H   0  0  0  0  0  0  0  0  0  0  0  0
   -0.4533   -0.6893    0.0000 H   0  0  0  0  0  0  0  0  0  0  0  0
    0.0000    0.8250    0.0000 C   0  0  0  0  0  0  0  0  0  0  0  0
   -0.4533    1.5143    0.0000 H   0  0  0  0  0  0  0  0  0  0  0  0
   -0.8236    0.8730    0.0000 H   0  0  0  0  0  0  0  0  0  0  0  0
    0.7145    1.2375    0.0000 N   0  0  0  0  0  0  0  0  0  0  0  0
    0.7145    2.0625    0.0000 C   0  0  0  0  0  0  0  0  0  0  0  0
    1.4289    2.4750    0.0000 O   0  0  0  0  0  0  0  0  0  0  0  0
    0.0000    2.4750    0.0000 C   0  0  0  0  0  0  0  0  0  0  0  0
   -0.7145    2.0625    0.0000 Cl  0  0  0  0  0  0  0  0  0  0  0  0
    0.3703    3.2122    0.0000 H   0  0  0  0  0  0  0  0  0  0  0  0
   -0.3703    3.2122    0.0000 H   0  0  0  0  0  0  0  0  0  0  0  0
    1.4289    0.8250    0.0000 C   0  0  0  0  0  0  0  0  0  0  0  0
    1.6425    1.6219    0.0000 H   0  0  0  0  0  0  0  0  0  0  0  0
    0.7145    0.4125    0.0000 H   0  0  0  0  0  0  0  0  0  0  0  0
    1.4289    0.0000    0.0000 C   0  0  0  0  0  0  0  0  0  0  0  0
    1.1468   -0.7752    0.0000 H   0  0  0  0  0  0  0  0  0  0  0  0
    1.7111   -0.7752    0.0000 H   0  0  0  0  0  0  0  0  0  0  0  0
   -0.1091   -1.2855    0.0000 H   0  0  0  0  0  0  0  0  0  0  0  0
    0.2611   -1.9268    0.0000 H   0  0  0  0  0  0  0  0  0  0  0  0
    2.1434    0.4125    0.0000 H   0  0  0  0  0  0  0  0  0  0  0  0
    2.8579   -0.8250    0.0000 H   0  0  0  0  0  0  0  0  0  0  0  0
    3.3112   -0.6893    0.0000 H   0  0  0  0  0  0  0  0  0  0  0  0
    3.6815   -0.0480    0.0000 H   0  0  0  0  0  0  0  0  0  0  0  0
    3.5724    2.0625    0.0000 H   0  0  0  0  0  0  0  0  0  0  0  0
    2.1434    2.0625    0.0000 H   0  0  0  0  0  0  0  0  0  0  0  0
  1  2  1  0  0  0  0
  2  3  2  0  0  0  0
  2  4  2  0  0  0  0
  2  5  1  0  0  0  0
  5  6  1  0  0  0  0
  6  7  1  0  0  0  0
  7  8  2  0  0  0  0
  8  9  1  0  0  0  0
  8 10  1  0  0  0  0
 10 11  1  0  0  0  0
 10 12  2  0  0  0  0
 12 13  1  0  0  0  0
 12 14  1  0  0  0  0
 14 15  1  0  0  0  0
 14 16  2  0  0  0  0
  7 16  1  0  0  0  0
 16 17  1  0  0  0  0
 17 18  1  0  0  0  0
 18 19  1  0  0  0  0
 19 20  1  0  0  0  0
 19 21  1  0  0  0  0
 19 22  1  0  0  0  0
 22 23  1  0  0  0  0
 22 24  1  0  0  0  0
 22 25  1  0  0  0  0
 25 26  1  0  0  0  0
 26 27  2  0  0  0  0
 26 28  1  0  0  0  0
 28 29  1  0  0  0  0
 28 30  1  0  0  0  0
 28 31  1  0  0  0  0
 25 32  1  0  0  0  0
 32 33  1  0  0  0  0
 32 34  1  0  0  0  0
 32 35  1  0  0  0  0
 18 35  1  0  0  0  0
 35 36  1  0  0  0  0
 35 37  1  0  0  0  0
 17 38  1  0  0  0  0
 17 39  1  0  0  0  0
  6 40  1  0  0  0  0
  6 41  1  0  0  0  0
  5 42  1  0  0  0  0
  5 43  1  0  0  0  0
  1 44  1  0  0  0  0
  1 45  1  0  0  0  0
M  END
> <Potency>
2.71702061388963

> <pIC50>
5.5659070666006745

> <Outcome>
Active

> <is_active>
1

$$$$

  Mrv1921 08232120312D          

 39 42  0  0  0  0            999 V2000
    4.1156   -0.6979    0.0000 C   0  0  0  0  0  0  0  0  0  0  0  0
    4.9406   -0.6979    0.0000 C   0  0  0  0  0  0  0  0  0  0  0  0
    5.4255   -0.0305    0.0000 C   0  0  0  0  0  0  0  0  0  0  0  0
    5.1706    0.7541    0.0000 H   0  0  0  0  0  0  0  0  0  0  0  0
    6.2102   -0.2854    0.0000 C   0  0  0  0  0  0  0  0  0  0  0  0
    6.9246    0.1271    0.0000 C   0  0  0  0  0  0  0  0  0  0  0  0
    6.9246    0.9521    0.0000 N   0  0  0  0  0  0  0  0  0  0  0  0
    7.6391    1.3646    0.0000 C   0  0  0  0  0  0  0  0  0  0  0  0
    8.3536    0.9521    0.0000 O   0  0  0  0  0  0  0  0  0  0  0  0
    7.6391    2.1896    0.0000 C   0  0  0  0  0  0  0  0  0  0  0  0
    6.9246    2.6021    0.0000 C   0  0  0  0  0  0  0  0  0  0  0  0
    6.1010    2.5541    0.0000 H   0  0  0  0  0  0  0  0  0  0  0  0
    6.4713    1.9128    0.0000 H   0  0  0  0  0  0  0  0  0  0  0  0
    6.9246    3.4271    0.0000 C   0  0  0  0  0  0  0  0  0  0  0  0
    6.4713    4.1163    0.0000 H   0  0  0  0  0  0  0  0  0  0  0  0
    6.1010    3.4750    0.0000 H   0  0  0  0  0  0  0  0  0  0  0  0
    7.6391    3.8396    0.0000 O   0  0  0  0  0  0  0  0  0  0  0  0
    8.3536    3.4271    0.0000 C   0  0  0  0  0  0  0  0  0  0  0  0
    9.0681    3.8396    0.0000 C   0  0  0  0  0  0  0  0  0  0  0  0
    9.7825    3.4271    0.0000 C   0  0  0  0  0  0  0  0  0  0  0  0
    9.7825    2.6021    0.0000 C   0  0  0  0  0  0  0  0  0  0  0  0
   10.4970    2.1896    0.0000 Cl  0  0  0  0  0  0  0  0  0  0  0  0
    9.0681    2.1896    0.0000 C   0  0  0  0  0  0  0  0  0  0  0  0
    9.4806    1.4751    0.0000 H   0  0  0  0  0  0  0  0  0  0  0  0
    8.3536    2.6021    0.0000 C   0  0  0  0  0  0  0  0  0  0  0  0
   10.4970    3.8396    0.0000 H   0  0  0  0  0  0  0  0  0  0  0  0
    9.0681    4.6646    0.0000 H   0  0  0  0  0  0  0  0  0  0  0  0
    8.3536    1.7771    0.0000 H   0  0  0  0  0  0  0  0  0  0  0  0
    6.2102    1.3646    0.0000 H   0  0  0  0  0  0  0  0  0  0  0  0
    7.6391   -0.2854    0.0000 C   0  0  0  0  0  0  0  0  0  0  0  0
    7.6391   -1.1104    0.0000 N   0  0  0  0  0  0  0  0  0  0  0  0
    6.9246   -1.5229    0.0000 C   0  0  0  0  0  0  0  0  0  0  0  0
    6.9246   -2.3479    0.0000 H   0  0  0  0  0  0  0  0  0  0  0  0
    6.2102   -1.1104    0.0000 C   0  0  0  0  0  0  0  0  0  0  0  0
    5.4255   -1.3654    0.0000 S   0  0  0  0  0  0  0  0  0  0  0  0
    8.3536    0.1271    0.0000 H   0  0  0  0  0  0  0  0  0  0  0  0
    4.1156    0.1271    0.0000 H   0  0  0  0  0  0  0  0  0  0  0  0
    3.2906   -0.6979    0.0000 H   0  0  0  0  0  0  0  0  0  0  0  0
    4.1156   -1.5229    0.0000 H   0  0  0  0  0  0  0  0  0  0  0  0
  1  2  1  0  0  0  0
  2  3  2  0  0  0  0
  3  4  1  0  0  0  0
  3  5  1  0  0  0  0
  5  6  2  0  0  0  0
  6  7  1  0  0  0  0
  7  8  1  0  0  0  0
  8  9  2  0  0  0  0
  8 10  1  0  0  0  0
 10 11  1  0  0  0  0
 11 12  1  0  0  0  0
 11 13  1  0  0  0  0
 11 14  1  0  0  0  0
 14 15  1  0  0  0  0
 14 16  1  0  0  0  0
 14 17  1  0  0  0  0
 17 18  1  0  0  0  0
 18 19  2  0  0  0  0
 19 20  1  0  0  0  0
 20 21  2  0  0  0  0
 21 22  1  0  0  0  0
 21 23  1  0  0  0  0
 23 24  1  0  0  0  0
 23 25  2  0  0  0  0
 10 25  1  0  0  0  0
 18 25  1  0  0  0  0
 20 26  1  0  0  0  0
 19 27  1  0  0  0  0
 10 28  1  0  0  0  0
  7 29  1  0  0  0  0
  6 30  1  0  0  0  0
 30 31  2  0  0  0  0
 31 32  1  0  0  0  0
 32 33  1  0  0  0  0
 32 34  2  0  0  0  0
  5 34  1  0  0  0  0
 34 35  1  0  0  0  0
  2 35  1  0  0  0  0
 30 36  1  0  0  0  0
  1 37  1  0  0  0  0
  1 38  1  0  0  0  0
  1 39  1  0  0  0  0
M  END
> <Potency>
0.227853691950513

> <pIC50>
6.642343930080236

> <Outcome>
Active

> <is_active>
1

$$$$

  Mrv1921 08232120312D          

 51 54  0  0  0  0            999 V2000
    2.8579   -6.6000    0.0000 C   0  0  0  0  0  0  0  0  0  0  0  0
    2.8579   -5.7750    0.0000 N   0  0  0  0  0  0  0  0  0  0  0  0
    3.5724   -5.3625    0.0000 C   0  0  0  0  0  0  0  0  0  0  0  0
    3.9849   -6.0770    0.0000 H   0  0  0  0  0  0  0  0  0  0  0  0
    4.2868   -4.9500    0.0000 H   0  0  0  0  0  0  0  0  0  0  0  0
    3.1599   -4.6480    0.0000 H   0  0  0  0  0  0  0  0  0  0  0  0
    2.1434   -5.3625    0.0000 S   0  0  0  0  0  0  0  0  0  0  0  0
    2.5559   -4.6480    0.0000 O   0  0  0  0  0  0  0  0  0  0  0  0
    1.7309   -6.0770    0.0000 O   0  0  0  0  0  0  0  0  0  0  0  0
    1.4289   -4.9500    0.0000 N   0  0  0  0  0  0  0  0  0  0  0  0
    0.7145   -5.3625    0.0000 C   0  0  0  0  0  0  0  0  0  0  0  0
    0.3442   -6.0997    0.0000 H   0  0  0  0  0  0  0  0  0  0  0  0
    1.0847   -6.0997    0.0000 H   0  0  0  0  0  0  0  0  0  0  0  0
    0.0000   -4.9500    0.0000 C   0  0  0  0  0  0  0  0  0  0  0  0
   -0.7145   -5.3625    0.0000 C   0  0  0  0  0  0  0  0  0  0  0  0
   -1.4289   -4.9500    0.0000 C   0  0  0  0  0  0  0  0  0  0  0  0
   -1.4289   -4.1250    0.0000 C   0  0  0  0  0  0  0  0  0  0  0  0
   -2.1434   -3.7125    0.0000 Cl  0  0  0  0  0  0  0  0  0  0  0  0
   -0.7145   -3.7125    0.0000 C   0  0  0  0  0  0  0  0  0  0  0  0
   -0.7145   -2.8875    0.0000 H   0  0  0  0  0  0  0  0  0  0  0  0
    0.0000   -4.1250    0.0000 C   0  0  0  0  0  0  0  0  0  0  0  0
    0.7145   -3.7125    0.0000 C   0  0  0  0  0  0  0  0  0  0  0  0
    0.7145   -2.8875    0.0000 C   0  0  0  0  0  0  0  0  0  0  0  0
    0.0000   -2.4750    0.0000 O   0  0  0  0  0  0  0  0  0  0  0  0
    1.4289   -2.4750    0.0000 N   0  0  0  0  0  0  0  0  0  0  0  0
    1.4289   -1.6500    0.0000 C   0  0  0  0  0  0  0  0  0  0  0  0
    0.7145   -1.2375    0.0000 C   0  0  0  0  0  0  0  0  0  0  0  0
    0.0000   -1.6500    0.0000 H   0  0  0  0  0  0  0  0  0  0  0  0
    0.7145   -0.4125    0.0000 N   0  0  0  0  0  0  0  0  0  0  0  0
    1.4289    0.0000    0.0000 C   0  0  0  0  0  0  0  0  0  0  0  0
    1.4289    0.8250    0.0000 H   0  0  0  0  0  0  0  0  0  0  0  0
    2.1434   -0.4125    0.0000 C   0  0  0  0  0  0  0  0  0  0  0  0
    2.8579    0.0000    0.0000 C   0  0  0  0  0  0  0  0  0  0  0  0
    3.5724   -0.4125    0.0000 C   0  0  0  0  0  0  0  0  0  0  0  0
    3.5724   -1.2375    0.0000 C   0  0  0  0  0  0  0  0  0  0  0  0
    2.8579   -1.6500    0.0000 C   0  0  0  0  0  0  0  0  0  0  0  0
    2.8579   -2.4750    0.0000 H   0  0  0  0  0  0  0  0  0  0  0  0
    2.1434   -1.2375    0.0000 C   0  0  0  0  0  0  0  0  0  0  0  0
    4.2868   -1.6500    0.0000 H   0  0  0  0  0  0  0  0  0  0  0  0
    4.2868   -0.0000    0.0000 H   0  0  0  0  0  0  0  0  0  0  0  0
    2.8579    0.8250    0.0000 H   0  0  0  0  0  0  0  0  0  0  0  0
    2.2539   -2.4750    0.0000 H   0  0  0  0  0  0  0  0  0  0  0  0
    1.4289   -3.3000    0.0000 H   0  0  0  0  0  0  0  0  0  0  0  0
    1.4289   -4.1250    0.0000 C   0  0  0  0  0  0  0  0  0  0  0  0
    2.2042   -4.4072    0.0000 H   0  0  0  0  0  0  0  0  0  0  0  0
    2.2042   -3.8428    0.0000 H   0  0  0  0  0  0  0  0  0  0  0  0
   -2.1434   -5.3625    0.0000 H   0  0  0  0  0  0  0  0  0  0  0  0
   -0.7145   -6.1875    0.0000 H   0  0  0  0  0  0  0  0  0  0  0  0
    2.0329   -6.6000    0.0000 H   0  0  0  0  0  0  0  0  0  0  0  0
    2.8579   -7.4250    0.0000 H   0  0  0  0  0  0  0  0  0  0  0  0
    3.6829   -6.6000    0.0000 H   0  0  0  0  0  0  0  0  0  0  0  0
  1  2  1  0  0  0  0
  2  3  1  0  0  0  0
  3  4  1  0  0  0  0
  3  5  1  0  0  0  0
  3  6  1  0  0  0  0
  2  7  1  0  0  0  0
  7  8  2  0  0  0  0
  7  9  2  0  0  0  0
  7 10  1  0  0  0  0
 10 11  1  0  0  0  0
 11 12  1  0  0  0  0
 11 13  1  0  0  0  0
 11 14  1  0  0  0  0
 14 15  2  0  0  0  0
 15 16  1  0  0  0  0
 16 17  2  0  0  0  0
 17 18  1  0  0  0  0
 17 19  1  0  0  0  0
 19 20  1  0  0  0  0
 19 21  2  0  0  0  0
 14 21  1  0  0  0  0
 21 22  1  0  0  0  0
 22 23  1  0  0  0  0
 23 24  2  0  0  0  0
 23 25  1  0  0  0  0
 25 26  1  0  0  0  0
 26 27  2  0  0  0  0
 27 28  1  0  0  0  0
 27 29  1  0  0  0  0
 29 30  2  0  0  0  0
 30 31  1  0  0  0  0
 30 32  1  0  0  0  0
 32 33  2  0  0  0  0
 33 34  1  0  0  0  0
 34 35  2  0  0  0  0
 35 36  1  0  0  0  0
 36 37  1  0  0  0  0
 36 38  2  0  0  0  0
 26 38  1  0  0  0  0
 32 38  1  0  0  0  0
 35 39  1  0  0  0  0
 34 40  1  0  0  0  0
 33 41  1  0  0  0  0
 25 42  1  0  0  0  0
 22 43  1  0  0  0  0
 22 44  1  0  0  0  0
 10 44  1  0  0  0  0
 44 45  1  0  0  0  0
 44 46  1  0  0  0  0
 16 47  1  0  0  0  0
 15 48  1  0  0  0  0
  1 49  1  0  0  0  0
  1 50  1  0  0  0  0
  1 51  1  0  0  0  0
M  END
> <Potency>
0.139154191323607

> <pIC50>
6.856503708185123

> <Outcome>
Active

> <is_active>
1

$$$$

  Mrv1921 08232120312D          

 67 69  0  0  0  0            999 V2000
   -1.1270    1.2888    0.0000 C   0  0  0  0  0  0  0  0  0  0  0  0
   -0.7145    0.5743    0.0000 C   0  0  0  0  0  0  0  0  0  0  0  0
   -1.4289    0.1618    0.0000 C   0  0  0  0  0  0  0  0  0  0  0  0
   -2.2469    0.0541    0.0000 H   0  0  0  0  0  0  0  0  0  0  0  0
   -1.6425   -0.6351    0.0000 H   0  0  0  0  0  0  0  0  0  0  0  0
   -0.7744   -0.3404    0.0000 H   0  0  0  0  0  0  0  0  0  0  0  0
   -0.0000    0.9868    0.0000 C   0  0  0  0  0  0  0  0  0  0  0  0
    0.1077    0.1689    0.0000 H   0  0  0  0  0  0  0  0  0  0  0  0
    0.7969    0.7733    0.0000 H   0  0  0  0  0  0  0  0  0  0  0  0
    0.5022    1.6413    0.0000 H   0  0  0  0  0  0  0  0  0  0  0  0
   -0.3020   -0.1401    0.0000 C   0  0  0  0  0  0  0  0  0  0  0  0
    0.5230   -0.1401    0.0000 C   0  0  0  0  0  0  0  0  0  0  0  0
    1.3425   -0.0445    0.0000 H   0  0  0  0  0  0  0  0  0  0  0  0
    0.9355   -0.8546    0.0000 C   0  0  0  0  0  0  0  0  0  0  0  0
    1.3480   -1.5691    0.0000 H   0  0  0  0  0  0  0  0  0  0  0  0
    0.5230   -1.5691    0.0000 C   0  0  0  0  0  0  0  0  0  0  0  0
    0.9355   -2.2836    0.0000 N   0  0  0  0  0  0  0  0  0  0  0  0
    0.5230   -2.9980    0.0000 C   0  0  0  0  0  0  0  0  0  0  0  0
    0.9355   -3.7125    0.0000 O   0  0  0  0  0  0  0  0  0  0  0  0
   -0.3020   -2.9980    0.0000 C   0  0  0  0  0  0  0  0  0  0  0  0
   -0.7145   -3.7125    0.0000 C   0  0  0  0  0  0  0  0  0  0  0  0
   -1.5395   -3.7125    0.0000 C   0  0  0  0  0  0  0  0  0  0  0  0
   -2.3645   -3.7125    0.0000 N   0  0  0  0  0  0  0  0  0  0  0  0
   -0.6665   -4.5361    0.0000 H   0  0  0  0  0  0  0  0  0  0  0  0
   -0.0252   -4.1658    0.0000 H   0  0  0  0  0  0  0  0  0  0  0  0
   -0.3499   -2.1744    0.0000 H   0  0  0  0  0  0  0  0  0  0  0  0
   -0.9912   -2.5447    0.0000 H   0  0  0  0  0  0  0  0  0  0  0  0
    1.7605   -2.2836    0.0000 C   0  0  0  0  0  0  0  0  0  0  0  0
    2.1730   -2.9980    0.0000 C   0  0  0  0  0  0  0  0  0  0  0  0
    1.7605   -3.7125    0.0000 O   0  0  0  0  0  0  0  0  0  0  0  0
    2.9980   -2.9980    0.0000 N   0  0  0  0  0  0  0  0  0  0  0  0
    3.4105   -3.7125    0.0000 C   0  0  0  0  0  0  0  0  0  0  0  0
    4.2355   -3.7125    0.0000 C   0  0  0  0  0  0  0  0  0  0  0  0
    4.6480   -4.4270    0.0000 C   0  0  0  0  0  0  0  0  0  0  0  0
    5.4730   -4.4270    0.0000 C   0  0  0  0  0  0  0  0  0  0  0  0
    5.8855   -3.7125    0.0000 H   0  0  0  0  0  0  0  0  0  0  0  0
    5.8855   -5.1414    0.0000 C   0  0  0  0  0  0  0  0  0  0  0  0
    6.7105   -5.1414    0.0000 H   0  0  0  0  0  0  0  0  0  0  0  0
    5.4730   -5.8559    0.0000 C   0  0  0  0  0  0  0  0  0  0  0  0
    5.8855   -6.5704    0.0000 H   0  0  0  0  0  0  0  0  0  0  0  0
    4.6480   -5.8559    0.0000 C   0  0  0  0  0  0  0  0  0  0  0  0
    4.2355   -6.5704    0.0000 F   0  0  0  0  0  0  0  0  0  0  0  0
    4.2355   -5.1414    0.0000 C   0  0  0  0  0  0  0  0  0  0  0  0
    3.4105   -5.1414    0.0000 H   0  0  0  0  0  0  0  0  0  0  0  0
    4.9248   -3.2592    0.0000 H   0  0  0  0  0  0  0  0  0  0  0  0
    4.2835   -2.8889    0.0000 H   0  0  0  0  0  0  0  0  0  0  0  0
    2.7213   -4.1658    0.0000 H   0  0  0  0  0  0  0  0  0  0  0  0
    3.3626   -4.5361    0.0000 H   0  0  0  0  0  0  0  0  0  0  0  0
    3.4105   -2.2836    0.0000 H   0  0  0  0  0  0  0  0  0  0  0  0
    2.1730   -1.5691    0.0000 C   0  0  0  0  0  0  0  0  0  0  0  0
    1.7605   -0.8546    0.0000 C   0  0  0  0  0  0  0  0  0  0  0  0
    2.5855   -0.8546    0.0000 H   0  0  0  0  0  0  0  0  0  0  0  0
    2.1730   -0.1401    0.0000 C   0  0  0  0  0  0  0  0  0  0  0  0
    2.2203    0.6835    0.0000 H   0  0  0  0  0  0  0  0  0  0  0  0
    2.9980   -0.1401    0.0000 C   0  0  0  0  0  0  0  0  0  0  0  0
    3.4105    0.5743    0.0000 H   0  0  0  0  0  0  0  0  0  0  0  0
    3.4105   -0.8546    0.0000 N   0  0  0  0  0  0  0  0  0  0  0  0
    2.9980   -1.5691    0.0000 C   0  0  0  0  0  0  0  0  0  0  0  0
    2.5855   -2.2836    0.0000 H   0  0  0  0  0  0  0  0  0  0  0  0
    1.3480   -2.9980    0.0000 H   0  0  0  0  0  0  0  0  0  0  0  0
   -0.3020   -1.5691    0.0000 C   0  0  0  0  0  0  0  0  0  0  0  0
   -1.1067   -1.7509    0.0000 H   0  0  0  0  0  0  0  0  0  0  0  0
   -0.7145   -0.8546    0.0000 C   0  0  0  0  0  0  0  0  0  0  0  0
   -1.2070   -1.5165    0.0000 H   0  0  0  0  0  0  0  0  0  0  0  0
   -0.4125    1.7013    0.0000 H   0  0  0  0  0  0  0  0  0  0  0  0
   -1.5395    2.0033    0.0000 H   0  0  0  0  0  0  0  0  0  0  0  0
   -1.8414    0.8763    0.0000 H   0  0  0  0  0  0  0  0  0  0  0  0
  1  2  1  0  0  0  0
  2  3  1  0  0  0  0
  3  4  1  0  0  0  0
  3  5  1  0  0  0  0
  3  6  1  0  0  0  0
  2  7  1  0  0  0  0
  7  8  1  0  0  0  0
  7  9  1  0  0  0  0
  7 10  1  0  0  0  0
  2 11  1  0  0  0  0
 11 12  2  0  0  0  0
 12 13  1  0  0  0  0
 12 14  1  0  0  0  0
 14 15  1  0  0  0  0
 14 16  2  0  0  0  0
 16 17  1  0  0  0  0
 17 18  1  0  0  0  0
 18 19  2  0  0  0  0
 18 20  1  0  0  0  0
 20 21  1  0  0  0  0
 21 22  1  0  0  0  0
 22 23  3  0  0  0  0
 21 24  1  0  0  0  0
 21 25  1  0  0  0  0
 20 26  1  0  0  0  0
 20 27  1  0  0  0  0
 17 28  1  0  0  0  0
 28 29  1  0  0  0  0
 29 30  2  0  0  0  0
 29 31  1  0  0  0  0
 31 32  1  0  0  0  0
 32 33  1  0  0  0  0
 33 34  1  0  0  0  0
 34 35  2  0  0  0  0
 35 36  1  0  0  0  0
 35 37  1  0  0  0  0
 37 38  1  0  0  0  0
 37 39  2  0  0  0  0
 39 40  1  0  0  0  0
 39 41  1  0  0  0  0
 41 42  1  0  0  0  0
 41 43  2  0  0  0  0
 34 43  1  0  0  0  0
 43 44  1  0  0  0  0
 33 45  1  0  0  0  0
 33 46  1  0  0  0  0
 32 47  1  0  0  0  0
 32 48  1  0  0  0  0
 31 49  1  0  0  0  0
 28 50  1  0  0  0  0
 50 51  2  0  0  0  0
 51 52  1  0  0  0  0
 51 53  1  0  0  0  0
 53 54  1  0  0  0  0
 53 55  2  0  0  0  0
 55 56  1  0  0  0  0
 55 57  1  0  0  0  0
 57 58  2  0  0  0  0
 50 58  1  0  0  0  0
 58 59  1  0  0  0  0
 28 60  1  0  0  0  0
 16 61  1  0  0  0  0
 61 62  1  0  0  0  0
 61 63  2  0  0  0  0
 11 63  1  0  0  0  0
 63 64  1  0  0  0  0
  1 65  1  0  0  0  0
  1 66  1  0  0  0  0
  1 67  1  0  0  0  0
M  END
> <Potency>
3.80185679998582

> <pIC50>
5.420004245215759

> <Outcome>
Active

> <is_active>
1

$$$$

  Mrv1921 08232120312D          

 46 47  0  0  0  0            999 V2000
    3.5724   -0.4125    0.0000 C   0  0  0  0  0  0  0  0  0  0  0  0
    2.8579   -0.0000    0.0000 C   0  0  0  0  0  0  0  0  0  0  0  0
    2.8579    0.8250    0.0000 C   0  0  0  0  0  0  0  0  0  0  0  0
    3.4899    1.3553    0.0000 H   0  0  0  0  0  0  0  0  0  0  0  0
    3.0011    1.6375    0.0000 H   0  0  0  0  0  0  0  0  0  0  0  0
    2.1434    0.4125    0.0000 H   0  0  0  0  0  0  0  0  0  0  0  0
    2.1434   -0.4125    0.0000 C   0  0  0  0  0  0  0  0  0  0  0  0
    2.1434   -1.2375    0.0000 C   0  0  0  0  0  0  0  0  0  0  0  0
    2.8579   -1.6500    0.0000 C   0  0  0  0  0  0  0  0  0  0  0  0
    3.4899   -2.1803    0.0000 H   0  0  0  0  0  0  0  0  0  0  0  0
    3.6704   -1.5067    0.0000 H   0  0  0  0  0  0  0  0  0  0  0  0
    2.8579   -2.4750    0.0000 N   0  0  0  0  0  0  0  0  0  0  0  0
    3.5724   -2.8875    0.0000 C   0  0  0  0  0  0  0  0  0  0  0  0
    4.2868   -2.4750    0.0000 O   0  0  0  0  0  0  0  0  0  0  0  0
    3.5724   -3.7125    0.0000 C   0  0  0  0  0  0  0  0  0  0  0  0
    4.2868   -4.1250    0.0000 Cl  0  0  0  0  0  0  0  0  0  0  0  0
    2.7488   -3.7605    0.0000 H   0  0  0  0  0  0  0  0  0  0  0  0
    3.1190   -4.4018    0.0000 H   0  0  0  0  0  0  0  0  0  0  0  0
    2.1434   -2.8875    0.0000 C   0  0  0  0  0  0  0  0  0  0  0  0
    1.7732   -3.6247    0.0000 H   0  0  0  0  0  0  0  0  0  0  0  0
    2.5137   -3.6247    0.0000 H   0  0  0  0  0  0  0  0  0  0  0  0
    1.4289   -2.4750    0.0000 C   0  0  0  0  0  0  0  0  0  0  0  0
    0.6053   -2.5230    0.0000 H   0  0  0  0  0  0  0  0  0  0  0  0
    0.9756   -3.1643    0.0000 H   0  0  0  0  0  0  0  0  0  0  0  0
    1.4289   -1.6500    0.0000 N   0  0  0  0  0  0  0  0  0  0  0  0
    0.7145   -1.2375    0.0000 C   0  0  0  0  0  0  0  0  0  0  0  0
    0.7145   -0.4125    0.0000 C   0  0  0  0  0  0  0  0  0  0  0  0
    0.0000    0.0000    0.0000 C   0  0  0  0  0  0  0  0  0  0  0  0
   -0.7145   -0.4125    0.0000 H   0  0  0  0  0  0  0  0  0  0  0  0
    0.0000    0.8250    0.0000 C   0  0  0  0  0  0  0  0  0  0  0  0
   -0.7145    1.2375    0.0000 H   0  0  0  0  0  0  0  0  0  0  0  0
    0.7145    1.2375    0.0000 C   0  0  0  0  0  0  0  0  0  0  0  0
    0.7145    2.0625    0.0000 H   0  0  0  0  0  0  0  0  0  0  0  0
    1.4289    0.8250    0.0000 C   0  0  0  0  0  0  0  0  0  0  0  0
    2.1434    1.2375    0.0000 Cl  0  0  0  0  0  0  0  0  0  0  0  0
    1.4289    0.0000    0.0000 C   0  0  0  0  0  0  0  0  0  0  0  0
    0.7145    0.4125    0.0000 H   0  0  0  0  0  0  0  0  0  0  0  0
   -0.1091   -1.2855    0.0000 H   0  0  0  0  0  0  0  0  0  0  0  0
    0.2611   -1.9268    0.0000 H   0  0  0  0  0  0  0  0  0  0  0  0
    2.1434   -2.0625    0.0000 H   0  0  0  0  0  0  0  0  0  0  0  0
    2.8579   -0.8250    0.0000 H   0  0  0  0  0  0  0  0  0  0  0  0
    1.4289   -0.8250    0.0000 H   0  0  0  0  0  0  0  0  0  0  0  0
    3.5724    0.4125    0.0000 H   0  0  0  0  0  0  0  0  0  0  0  0
    3.1599   -1.1270    0.0000 H   0  0  0  0  0  0  0  0  0  0  0  0
    4.2868   -0.8250    0.0000 H   0  0  0  0  0  0  0  0  0  0  0  0
    3.9849    0.3020    0.0000 H   0  0  0  0  0  0  0  0  0  0  0  0
  1  2  1  0  0  0  0
  2  3  1  0  0  0  0
  3  4  1  0  0  0  0
  3  5  1  0  0  0  0
  3  6  1  0  0  0  0
  2  7  1  0  0  0  0
  7  8  1  0  0  0  0
  8  9  1  0  0  0  0
  9 10  1  0  0  0  0
  9 11  1  0  0  0  0
  9 12  1  0  0  0  0
 12 13  1  0  0  0  0
 13 14  2  0  0  0  0
 13 15  1  0  0  0  0
 15 16  1  0  0  0  0
 15 17  1  0  0  0  0
 15 18  1  0  0  0  0
 12 19  1  0  0  0  0
 19 20  1  0  0  0  0
 19 21  1  0  0  0  0
 19 22  1  0  0  0  0
 22 23  1  0  0  0  0
 22 24  1  0  0  0  0
 22 25  1  0  0  0  0
  8 25  1  0  0  0  0
 25 26  1  0  0  0  0
 26 27  1  0  0  0  0
 27 28  2  0  0  0  0
 28 29  1  0  0  0  0
 28 30  1  0  0  0  0
 30 31  1  0  0  0  0
 30 32  2  0  0  0  0
 32 33  1  0  0  0  0
 32 34  1  0  0  0  0
 34 35  1  0  0  0  0
 34 36  2  0  0  0  0
 27 36  1  0  0  0  0
 36 37  1  0  0  0  0
 26 38  1  0  0  0  0
 26 39  1  0  0  0  0
  8 40  1  0  0  0  0
  7 41  1  0  0  0  0
  7 42  1  0  0  0  0
  2 43  1  0  0  0  0
  1 44  1  0  0  0  0
  1 45  1  0  0  0  0
  1 46  1  0  0  0  0
M  END
> <Potency>
0.697609864197038

> <pIC50>
6.156387387112108

> <Outcome>
Active

> <is_active>
1

$$$$

  Mrv1921 08232120312D          

 40 43  0  0  0  0            999 V2000
    2.1434   -2.8875    0.0000 O   0  0  0  0  0  0  0  0  0  0  0  0
    1.4289   -2.4750    0.0000 C   0  0  0  0  0  0  0  0  0  0  0  0
    0.7145   -2.8875    0.0000 N   0  0  0  0  0  0  0  0  0  0  0  0
    0.7145   -3.7125    0.0000 C   0  0  0  0  0  0  0  0  0  0  0  0
    1.4289   -4.1250    0.0000 C   0  0  0  0  0  0  0  0  0  0  0  0
    2.1434   -3.7125    0.0000 H   0  0  0  0  0  0  0  0  0  0  0  0
    1.4289   -4.9500    0.0000 N   0  0  0  0  0  0  0  0  0  0  0  0
    0.7145   -5.3625    0.0000 C   0  0  0  0  0  0  0  0  0  0  0  0
    0.7145   -6.1875    0.0000 H   0  0  0  0  0  0  0  0  0  0  0  0
    0.0000   -4.9500    0.0000 C   0  0  0  0  0  0  0  0  0  0  0  0
   -0.7145   -5.3625    0.0000 C   0  0  0  0  0  0  0  0  0  0  0  0
   -1.4289   -4.9500    0.0000 C   0  0  0  0  0  0  0  0  0  0  0  0
   -1.4289   -4.1250    0.0000 C   0  0  0  0  0  0  0  0  0  0  0  0
   -0.7145   -3.7125    0.0000 C   0  0  0  0  0  0  0  0  0  0  0  0
   -0.7145   -2.8875    0.0000 H   0  0  0  0  0  0  0  0  0  0  0  0
    0.0000   -4.1250    0.0000 C   0  0  0  0  0  0  0  0  0  0  0  0
   -2.1434   -3.7125    0.0000 H   0  0  0  0  0  0  0  0  0  0  0  0
   -2.1434   -5.3625    0.0000 H   0  0  0  0  0  0  0  0  0  0  0  0
   -0.7145   -6.1875    0.0000 H   0  0  0  0  0  0  0  0  0  0  0  0
    0.0000   -2.4750    0.0000 H   0  0  0  0  0  0  0  0  0  0  0  0
    1.4289   -1.6500    0.0000 C   0  0  0  0  0  0  0  0  0  0  0  0
    0.7145   -1.2375    0.0000 N   0  0  0  0  0  0  0  0  0  0  0  0
    0.0000   -1.6500    0.0000 H   0  0  0  0  0  0  0  0  0  0  0  0
    0.7145   -0.4125    0.0000 C   0  0  0  0  0  0  0  0  0  0  0  0
    0.2611    0.2768    0.0000 H   0  0  0  0  0  0  0  0  0  0  0  0
   -0.1091   -0.3645    0.0000 H   0  0  0  0  0  0  0  0  0  0  0  0
    1.4289    0.0000    0.0000 C   0  0  0  0  0  0  0  0  0  0  0  0
    1.7992    0.7372    0.0000 H   0  0  0  0  0  0  0  0  0  0  0  0
    1.0587    0.7372    0.0000 H   0  0  0  0  0  0  0  0  0  0  0  0
    2.1434   -0.4125    0.0000 C   0  0  0  0  0  0  0  0  0  0  0  0
    2.8579    0.0000    0.0000 C   0  0  0  0  0  0  0  0  0  0  0  0
    3.5724   -0.4125    0.0000 C   0  0  0  0  0  0  0  0  0  0  0  0
    3.5724   -1.2375    0.0000 C   0  0  0  0  0  0  0  0  0  0  0  0
    4.2868   -1.6500    0.0000 Cl  0  0  0  0  0  0  0  0  0  0  0  0
    2.8579   -1.6500    0.0000 C   0  0  0  0  0  0  0  0  0  0  0  0
    3.2704   -2.3645    0.0000 H   0  0  0  0  0  0  0  0  0  0  0  0
    2.1434   -1.2375    0.0000 C   0  0  0  0  0  0  0  0  0  0  0  0
    4.2868   -0.0000    0.0000 H   0  0  0  0  0  0  0  0  0  0  0  0
    2.8579    0.8250    0.0000 H   0  0  0  0  0  0  0  0  0  0  0  0
    2.1434   -2.0625    0.0000 H   0  0  0  0  0  0  0  0  0  0  0  0
  1  2  2  0  0  0  0
  2  3  1  0  0  0  0
  3  4  1  0  0  0  0
  4  5  2  0  0  0  0
  5  6  1  0  0  0  0
  5  7  1  0  0  0  0
  7  8  2  0  0  0  0
  8  9  1  0  0  0  0
  8 10  1  0  0  0  0
 10 11  2  0  0  0  0
 11 12  1  0  0  0  0
 12 13  2  0  0  0  0
 13 14  1  0  0  0  0
 14 15  1  0  0  0  0
 14 16  2  0  0  0  0
  4 16  1  0  0  0  0
 10 16  1  0  0  0  0
 13 17  1  0  0  0  0
 12 18  1  0  0  0  0
 11 19  1  0  0  0  0
  3 20  1  0  0  0  0
  2 21  1  0  0  0  0
 21 22  1  0  0  0  0
 22 23  1  0  0  0  0
 22 24  1  0  0  0  0
 24 25  1  0  0  0  0
 24 26  1  0  0  0  0
 24 27  1  0  0  0  0
 27 28  1  0  0  0  0
 27 29  1  0  0  0  0
 27 30  1  0  0  0  0
 30 31  2  0  0  0  0
 31 32  1  0  0  0  0
 32 33  2  0  0  0  0
 33 34  1  0  0  0  0
 33 35  1  0  0  0  0
 35 36  1  0  0  0  0
 35 37  2  0  0  0  0
 21 37  1  0  0  0  0
 30 37  1  0  0  0  0
 32 38  1  0  0  0  0
 31 39  1  0  0  0  0
 21 40  1  0  0  0  0
M  END
> <Potency>
1.12598827555955

> <pIC50>
5.948466131586183

> <Outcome>
Active

> <is_active>
1

$$$$

  Mrv1921 08232120312D          

 76 78  0  0  0  0            999 V2000
    0.9963   -3.8752    0.0000 C   0  0  0  0  0  0  0  0  0  0  0  0
    1.5908   -4.4472    0.0000 C   0  0  0  0  0  0  0  0  0  0  0  0
    1.0187   -5.0417    0.0000 C   0  0  0  0  0  0  0  0  0  0  0  0
    0.2627   -5.3720    0.0000 H   0  0  0  0  0  0  0  0  0  0  0  0
    1.0346   -5.8666    0.0000 H   0  0  0  0  0  0  0  0  0  0  0  0
    1.7869   -5.3427    0.0000 H   0  0  0  0  0  0  0  0  0  0  0  0
    2.1628   -3.8528    0.0000 C   0  0  0  0  0  0  0  0  0  0  0  0
    2.4931   -4.6088    0.0000 H   0  0  0  0  0  0  0  0  0  0  0  0
    2.9877   -3.8369    0.0000 H   0  0  0  0  0  0  0  0  0  0  0  0
    2.4638   -3.0846    0.0000 H   0  0  0  0  0  0  0  0  0  0  0  0
    2.1852   -5.0193    0.0000 O   0  0  0  0  0  0  0  0  0  0  0  0
    2.9779   -4.7905    0.0000 C   0  0  0  0  0  0  0  0  0  0  0  0
    3.1760   -3.9896    0.0000 O   0  0  0  0  0  0  0  0  0  0  0  0
    3.5724   -5.3625    0.0000 N   0  0  0  0  0  0  0  0  0  0  0  0
    4.3650   -5.1337    0.0000 C   0  0  0  0  0  0  0  0  0  0  0  0
    4.9595   -5.7057    0.0000 C   0  0  0  0  0  0  0  0  0  0  0  0
    5.7521   -5.4769    0.0000 C   0  0  0  0  0  0  0  0  0  0  0  0
    6.3466   -6.0489    0.0000 N   0  0  0  0  0  0  0  0  0  0  0  0
    7.1392   -5.8201    0.0000 C   0  0  0  0  0  0  0  0  0  0  0  0
    7.3374   -5.0193    0.0000 O   0  0  0  0  0  0  0  0  0  0  0  0
    7.7337   -6.3922    0.0000 C   0  0  0  0  0  0  0  0  0  0  0  0
    7.5355   -7.1930    0.0000 C   0  0  0  0  0  0  0  0  0  0  0  0
    8.1300   -7.7650    0.0000 C   0  0  0  0  0  0  0  0  0  0  0  0
    8.3282   -6.9642    0.0000 H   0  0  0  0  0  0  0  0  0  0  0  0
    7.9318   -8.5659    0.0000 C   0  0  0  0  0  0  0  0  0  0  0  0
    8.5263   -9.1379    0.0000 H   0  0  0  0  0  0  0  0  0  0  0  0
    7.1392   -8.7947    0.0000 C   0  0  0  0  0  0  0  0  0  0  0  0
    6.9411   -9.5956    0.0000 H   0  0  0  0  0  0  0  0  0  0  0  0
    6.5447   -8.2227    0.0000 N   0  0  0  0  0  0  0  0  0  0  0  0
    6.7429   -7.4218    0.0000 C   0  0  0  0  0  0  0  0  0  0  0  0
    5.9503   -7.6506    0.0000 H   0  0  0  0  0  0  0  0  0  0  0  0
    8.5263   -6.1633    0.0000 N   0  0  0  0  0  0  0  0  0  0  0  0
    8.7245   -5.3625    0.0000 C   0  0  0  0  0  0  0  0  0  0  0  0
    8.1300   -4.7905    0.0000 O   0  0  0  0  0  0  0  0  0  0  0  0
    9.5171   -5.1337    0.0000 C   0  0  0  0  0  0  0  0  0  0  0  0
    9.7979   -4.3579    0.0000 C   0  0  0  0  0  0  0  0  0  0  0  0
    9.3353   -3.6748    0.0000 H   0  0  0  0  0  0  0  0  0  0  0  0
   10.6224   -4.3853    0.0000 O   0  0  0  0  0  0  0  0  0  0  0  0
   10.8513   -5.1779    0.0000 C   0  0  0  0  0  0  0  0  0  0  0  0
   11.6270   -5.4587    0.0000 H   0  0  0  0  0  0  0  0  0  0  0  0
   10.1681   -5.6404    0.0000 N   0  0  0  0  0  0  0  0  0  0  0  0
    9.1208   -6.7354    0.0000 C   0  0  0  0  0  0  0  0  0  0  0  0
    9.9134   -6.5066    0.0000 C   0  0  0  0  0  0  0  0  0  0  0  0
    9.3315   -5.9218    0.0000 H   0  0  0  0  0  0  0  0  0  0  0  0
   10.5079   -7.0786    0.0000 C   0  0  0  0  0  0  0  0  0  0  0  0
   11.3005   -6.8498    0.0000 H   0  0  0  0  0  0  0  0  0  0  0  0
   10.3097   -7.8795    0.0000 C   0  0  0  0  0  0  0  0  0  0  0  0
   10.9042   -8.4515    0.0000 C   0  0  0  0  0  0  0  0  0  0  0  0
   11.4987   -9.0235    0.0000 C   0  0  0  0  0  0  0  0  0  0  0  0
   10.9267   -9.6180    0.0000 H   0  0  0  0  0  0  0  0  0  0  0  0
   12.0932   -9.5956    0.0000 H   0  0  0  0  0  0  0  0  0  0  0  0
   12.0707   -8.4290    0.0000 H   0  0  0  0  0  0  0  0  0  0  0  0
   10.3322   -9.0460    0.0000 C   0  0  0  0  0  0  0  0  0  0  0  0
   10.0019   -8.2900    0.0000 H   0  0  0  0  0  0  0  0  0  0  0  0
    9.5073   -9.0618    0.0000 H   0  0  0  0  0  0  0  0  0  0  0  0
   10.0312   -9.8141    0.0000 H   0  0  0  0  0  0  0  0  0  0  0  0
   11.4763   -7.8570    0.0000 C   0  0  0  0  0  0  0  0  0  0  0  0
   12.2322   -7.5267    0.0000 H   0  0  0  0  0  0  0  0  0  0  0  0
   11.4604   -7.0322    0.0000 H   0  0  0  0  0  0  0  0  0  0  0  0
   10.7081   -7.5560    0.0000 H   0  0  0  0  0  0  0  0  0  0  0  0
    9.5171   -8.1083    0.0000 C   0  0  0  0  0  0  0  0  0  0  0  0
    8.7563   -8.4274    0.0000 H   0  0  0  0  0  0  0  0  0  0  0  0
    8.9226   -7.5362    0.0000 C   0  0  0  0  0  0  0  0  0  0  0  0
    9.7153   -7.3074    0.0000 H   0  0  0  0  0  0  0  0  0  0  0  0
    6.9411   -6.6210    0.0000 H   0  0  0  0  0  0  0  0  0  0  0  0
    6.1484   -6.8498    0.0000 H   0  0  0  0  0  0  0  0  0  0  0  0
    6.2886   -4.8502    0.0000 H   0  0  0  0  0  0  0  0  0  0  0  0
    5.5698   -4.6723    0.0000 H   0  0  0  0  0  0  0  0  0  0  0  0
    4.4230   -6.3325    0.0000 H   0  0  0  0  0  0  0  0  0  0  0  0
    5.1418   -6.5103    0.0000 H   0  0  0  0  0  0  0  0  0  0  0  0
    4.9015   -4.5070    0.0000 H   0  0  0  0  0  0  0  0  0  0  0  0
    4.1827   -4.3291    0.0000 H   0  0  0  0  0  0  0  0  0  0  0  0
    3.3742   -6.1633    0.0000 H   0  0  0  0  0  0  0  0  0  0  0  0
    1.5683   -3.2807    0.0000 H   0  0  0  0  0  0  0  0  0  0  0  0
    0.4018   -3.3032    0.0000 H   0  0  0  0  0  0  0  0  0  0  0  0
    0.4243   -4.4697    0.0000 H   0  0  0  0  0  0  0  0  0  0  0  0
  1  2  1  0  0  0  0
  2  3  1  0  0  0  0
  3  4  1  0  0  0  0
  3  5  1  0  0  0  0
  3  6  1  0  0  0  0
  2  7  1  0  0  0  0
  7  8  1  0  0  0  0
  7  9  1  0  0  0  0
  7 10  1  0  0  0  0
  2 11  1  0  0  0  0
 11 12  1  0  0  0  0
 12 13  2  0  0  0  0
 12 14  1  0  0  0  0
 14 15  1  0  0  0  0
 15 16  1  0  0  0  0
 16 17  1  0  0  0  0
 17 18  1  0  0  0  0
 18 19  1  0  0  0  0
 19 20  2  0  0  0  0
 19 21  1  0  0  0  0
 21 22  1  0  0  0  0
 22 23  2  0  0  0  0
 23 24  1  0  0  0  0
 23 25  1  0  0  0  0
 25 26  1  0  0  0  0
 25 27  2  0  0  0  0
 27 28  1  0  0  0  0
 27 29  1  0  0  0  0
 29 30  2  0  0  0  0
 22 30  1  0  0  0  0
 30 31  1  0  0  0  0
 21 32  1  0  0  0  0
 32 33  1  0  0  0  0
 33 34  2  0  0  0  0
 33 35  1  0  0  0  0
 35 36  2  0  0  0  0
 36 37  1  0  0  0  0
 36 38  1  0  0  0  0
 38 39  1  0  0  0  0
 39 40  1  0  0  0  0
 39 41  2  0  0  0  0
 35 41  1  0  0  0  0
 32 42  1  0  0  0  0
 42 43  2  0  0  0  0
 43 44  1  0  0  0  0
 43 45  1  0  0  0  0
 45 46  1  0  0  0  0
 45 47  2  0  0  0  0
 47 48  1  0  0  0  0
 48 49  1  0  0  0  0
 49 50  1  0  0  0  0
 49 51  1  0  0  0  0
 49 52  1  0  0  0  0
 48 53  1  0  0  0  0
 53 54  1  0  0  0  0
 53 55  1  0  0  0  0
 53 56  1  0  0  0  0
 48 57  1  0  0  0  0
 57 58  1  0  0  0  0
 57 59  1  0  0  0  0
 57 60  1  0  0  0  0
 47 61  1  0  0  0  0
 61 62  1  0  0  0  0
 61 63  2  0  0  0  0
 42 63  1  0  0  0  0
 63 64  1  0  0  0  0
 21 65  1  0  0  0  0
 18 66  1  0  0  0  0
 17 67  1  0  0  0  0
 17 68  1  0  0  0  0
 16 69  1  0  0  0  0
 16 70  1  0  0  0  0
 15 71  1  0  0  0  0
 15 72  1  0  0  0  0
 14 73  1  0  0  0  0
  1 74  1  0  0  0  0
  1 75  1  0  0  0  0
  1 76  1  0  0  0  0
M  END
> <Potency>
3.38945840285013

> <pIC50>
5.469869691603633

> <Outcome>
Active

> <is_active>
1

$$$$

  Mrv1921 08232120312D          

 61 64  0  0  0  0            999 V2000
   -1.6500    1.8118    0.0000 C   0  0  0  0  0  0  0  0  0  0  0  0
   -1.2375    1.0974    0.0000 C   0  0  0  0  0  0  0  0  0  0  0  0
   -1.9520    0.6849    0.0000 C   0  0  0  0  0  0  0  0  0  0  0  0
   -2.7699    0.5772    0.0000 H   0  0  0  0  0  0  0  0  0  0  0  0
   -2.1655   -0.1120    0.0000 H   0  0  0  0  0  0  0  0  0  0  0  0
   -1.2975    0.1826    0.0000 H   0  0  0  0  0  0  0  0  0  0  0  0
   -0.5230    1.5099    0.0000 C   0  0  0  0  0  0  0  0  0  0  0  0
   -0.4153    0.6919    0.0000 H   0  0  0  0  0  0  0  0  0  0  0  0
    0.2739    1.2963    0.0000 H   0  0  0  0  0  0  0  0  0  0  0  0
   -0.0208    2.1644    0.0000 H   0  0  0  0  0  0  0  0  0  0  0  0
   -0.8250    0.3829    0.0000 C   0  0  0  0  0  0  0  0  0  0  0  0
    0.0000    0.3829    0.0000 C   0  0  0  0  0  0  0  0  0  0  0  0
    0.8194    0.4785    0.0000 H   0  0  0  0  0  0  0  0  0  0  0  0
    0.4125   -0.3316    0.0000 C   0  0  0  0  0  0  0  0  0  0  0  0
    0.8250   -1.0461    0.0000 H   0  0  0  0  0  0  0  0  0  0  0  0
    0.0000   -1.0461    0.0000 C   0  0  0  0  0  0  0  0  0  0  0  0
    0.4125   -1.7605    0.0000 N   0  0  0  0  0  0  0  0  0  0  0  0
    0.0000   -2.4750    0.0000 C   0  0  0  0  0  0  0  0  0  0  0  0
    0.4125   -3.1895    0.0000 O   0  0  0  0  0  0  0  0  0  0  0  0
   -0.8250   -2.4750    0.0000 C   0  0  0  0  0  0  0  0  0  0  0  0
   -1.3099   -3.1424    0.0000 C   0  0  0  0  0  0  0  0  0  0  0  0
   -1.0550   -3.9271    0.0000 H   0  0  0  0  0  0  0  0  0  0  0  0
   -2.0945   -2.8875    0.0000 O   0  0  0  0  0  0  0  0  0  0  0  0
   -2.0945   -2.0625    0.0000 C   0  0  0  0  0  0  0  0  0  0  0  0
   -2.7620   -1.5776    0.0000 H   0  0  0  0  0  0  0  0  0  0  0  0
   -1.3099   -1.8076    0.0000 N   0  0  0  0  0  0  0  0  0  0  0  0
    1.2375   -1.7605    0.0000 C   0  0  0  0  0  0  0  0  0  0  0  0
    1.6500   -2.4750    0.0000 C   0  0  0  0  0  0  0  0  0  0  0  0
    1.2375   -3.1895    0.0000 O   0  0  0  0  0  0  0  0  0  0  0  0
    2.4750   -2.4750    0.0000 N   0  0  0  0  0  0  0  0  0  0  0  0
    2.8875   -3.1895    0.0000 C   0  0  0  0  0  0  0  0  0  0  0  0
    3.7080   -3.2757    0.0000 C   0  0  0  0  0  0  0  0  0  0  0  0
    4.4832   -2.9935    0.0000 H   0  0  0  0  0  0  0  0  0  0  0  0
    3.9076   -2.4752    0.0000 H   0  0  0  0  0  0  0  0  0  0  0  0
    3.8795   -4.0827    0.0000 C   0  0  0  0  0  0  0  0  0  0  0  0
    4.3874   -4.7328    0.0000 H   0  0  0  0  0  0  0  0  0  0  0  0
    4.7025   -4.0251    0.0000 H   0  0  0  0  0  0  0  0  0  0  0  0
    3.1650   -4.4952    0.0000 O   0  0  0  0  0  0  0  0  0  0  0  0
    2.5519   -3.9431    0.0000 C   0  0  0  0  0  0  0  0  0  0  0  0
    1.7755   -4.2219    0.0000 H   0  0  0  0  0  0  0  0  0  0  0  0
    2.1742   -4.6766    0.0000 H   0  0  0  0  0  0  0  0  0  0  0  0
    2.0636   -3.2326    0.0000 H   0  0  0  0  0  0  0  0  0  0  0  0
    2.8875   -1.7605    0.0000 H   0  0  0  0  0  0  0  0  0  0  0  0
    1.6500   -1.0461    0.0000 C   0  0  0  0  0  0  0  0  0  0  0  0
    1.2375   -0.3316    0.0000 C   0  0  0  0  0  0  0  0  0  0  0  0
    2.0625   -0.3316    0.0000 H   0  0  0  0  0  0  0  0  0  0  0  0
    1.6500    0.3829    0.0000 C   0  0  0  0  0  0  0  0  0  0  0  0
    1.6973    1.2065    0.0000 H   0  0  0  0  0  0  0  0  0  0  0  0
    2.4750    0.3829    0.0000 C   0  0  0  0  0  0  0  0  0  0  0  0
    2.8875    1.0974    0.0000 H   0  0  0  0  0  0  0  0  0  0  0  0
    2.8875   -0.3316    0.0000 N   0  0  0  0  0  0  0  0  0  0  0  0
    2.4750   -1.0461    0.0000 C   0  0  0  0  0  0  0  0  0  0  0  0
    2.0625   -1.7605    0.0000 H   0  0  0  0  0  0  0  0  0  0  0  0
    0.8250   -2.4750    0.0000 H   0  0  0  0  0  0  0  0  0  0  0  0
   -0.8250   -1.0461    0.0000 C   0  0  0  0  0  0  0  0  0  0  0  0
   -1.6498   -1.0281    0.0000 H   0  0  0  0  0  0  0  0  0  0  0  0
   -1.2375   -0.3316    0.0000 C   0  0  0  0  0  0  0  0  0  0  0  0
   -0.4125   -0.3316    0.0000 H   0  0  0  0  0  0  0  0  0  0  0  0
   -0.9355    2.2243    0.0000 H   0  0  0  0  0  0  0  0  0  0  0  0
   -2.0625    2.5263    0.0000 H   0  0  0  0  0  0  0  0  0  0  0  0
   -2.3645    1.3993    0.0000 H   0  0  0  0  0  0  0  0  0  0  0  0
  1  2  1  0  0  0  0
  2  3  1  0  0  0  0
  3  4  1  0  0  0  0
  3  5  1  0  0  0  0
  3  6  1  0  0  0  0
  2  7  1  0  0  0  0
  7  8  1  0  0  0  0
  7  9  1  0  0  0  0
  7 10  1  0  0  0  0
  2 11  1  0  0  0  0
 11 12  2  0  0  0  0
 12 13  1  0  0  0  0
 12 14  1  0  0  0  0
 14 15  1  0  0  0  0
 14 16  2  0  0  0  0
 16 17  1  0  0  0  0
 17 18  1  0  0  0  0
 18 19  2  0  0  0  0
 18 20  1  0  0  0  0
 20 21  2  0  0  0  0
 21 22  1  0  0  0  0
 21 23  1  0  0  0  0
 23 24  1  0  0  0  0
 24 25  1  0  0  0  0
 24 26  2  0  0  0  0
 20 26  1  0  0  0  0
 17 27  1  0  0  0  0
 27 28  1  0  0  0  0
 28 29  2  0  0  0  0
 28 30  1  0  0  0  0
 30 31  1  0  0  0  0
 31 32  1  0  0  0  0
 32 33  1  0  0  0  0
 32 34  1  0  0  0  0
 32 35  1  0  0  0  0
 35 36  1  0  0  0  0
 35 37  1  0  0  0  0
 35 38  1  0  0  0  0
 38 39  1  0  0  0  0
 31 39  1  0  0  0  0
 39 40  1  0  0  0  0
 39 41  1  0  0  0  0
 31 42  1  0  0  0  0
 30 43  1  0  0  0  0
 27 44  1  0  0  0  0
 44 45  2  0  0  0  0
 45 46  1  0  0  0  0
 45 47  1  0  0  0  0
 47 48  1  0  0  0  0
 47 49  2  0  0  0  0
 49 50  1  0  0  0  0
 49 51  1  0  0  0  0
 51 52  2  0  0  0  0
 44 52  1  0  0  0  0
 52 53  1  0  0  0  0
 27 54  1  0  0  0  0
 16 55  1  0  0  0  0
 55 56  1  0  0  0  0
 55 57  2  0  0  0  0
 11 57  1  0  0  0  0
 57 58  1  0  0  0  0
  1 59  1  0  0  0  0
  1 60  1  0  0  0  0
  1 61  1  0  0  0  0
M  END
> <Potency>
2.76689975514448

> <pIC50>
5.55800657507525

> <Outcome>
Active

> <is_active>
1

$$$$

  Mrv1921 08232120312D          

 39 42  0  0  0  0            999 V2000
    2.8579    0.8250    0.0000 O   0  0  0  0  0  0  0  0  0  0  0  0
    3.5724    1.2375    0.0000 C   0  0  0  0  0  0  0  0  0  0  0  0
    3.5724    2.0625    0.0000 C   0  0  0  0  0  0  0  0  0  0  0  0
    3.1190    2.7518    0.0000 H   0  0  0  0  0  0  0  0  0  0  0  0
    2.7488    2.1105    0.0000 H   0  0  0  0  0  0  0  0  0  0  0  0
    4.2868    2.4750    0.0000 C   0  0  0  0  0  0  0  0  0  0  0  0
    4.2868    3.3000    0.0000 C   0  0  0  0  0  0  0  0  0  0  0  0
    5.0013    3.7125    0.0000 O   0  0  0  0  0  0  0  0  0  0  0  0
    3.5724    3.7125    0.0000 N   0  0  0  0  0  0  0  0  0  0  0  0
    3.5724    4.5375    0.0000 C   0  0  0  0  0  0  0  0  0  0  0  0
    2.8579    4.9500    0.0000 C   0  0  0  0  0  0  0  0  0  0  0  0
    2.1434    4.5375    0.0000 H   0  0  0  0  0  0  0  0  0  0  0  0
    2.8579    5.7750    0.0000 N   0  0  0  0  0  0  0  0  0  0  0  0
    3.5724    6.1875    0.0000 C   0  0  0  0  0  0  0  0  0  0  0  0
    3.5724    7.0125    0.0000 H   0  0  0  0  0  0  0  0  0  0  0  0
    4.2868    5.7750    0.0000 C   0  0  0  0  0  0  0  0  0  0  0  0
    5.0013    6.1875    0.0000 C   0  0  0  0  0  0  0  0  0  0  0  0
    5.7158    5.7750    0.0000 C   0  0  0  0  0  0  0  0  0  0  0  0
    5.7158    4.9500    0.0000 C   0  0  0  0  0  0  0  0  0  0  0  0
    5.0013    4.5375    0.0000 C   0  0  0  0  0  0  0  0  0  0  0  0
    4.2868    4.1250    0.0000 H   0  0  0  0  0  0  0  0  0  0  0  0
    4.2868    4.9500    0.0000 C   0  0  0  0  0  0  0  0  0  0  0  0
    6.4302    4.5375    0.0000 H   0  0  0  0  0  0  0  0  0  0  0  0
    6.4302    6.1875    0.0000 H   0  0  0  0  0  0  0  0  0  0  0  0
    5.0013    7.0125    0.0000 H   0  0  0  0  0  0  0  0  0  0  0  0
    2.8579    3.3000    0.0000 H   0  0  0  0  0  0  0  0  0  0  0  0
    5.0013    2.8875    0.0000 H   0  0  0  0  0  0  0  0  0  0  0  0
    5.0013    2.0625    0.0000 C   0  0  0  0  0  0  0  0  0  0  0  0
    5.7158    2.4750    0.0000 C   0  0  0  0  0  0  0  0  0  0  0  0
    6.4302    2.0625    0.0000 C   0  0  0  0  0  0  0  0  0  0  0  0
    7.1447    2.4750    0.0000 Cl  0  0  0  0  0  0  0  0  0  0  0  0
    6.4302    1.2375    0.0000 C   0  0  0  0  0  0  0  0  0  0  0  0
    5.7158    0.8250    0.0000 C   0  0  0  0  0  0  0  0  0  0  0  0
    5.7158    0.0000    0.0000 Cl  0  0  0  0  0  0  0  0  0  0  0  0
    5.0013    1.2375    0.0000 C   0  0  0  0  0  0  0  0  0  0  0  0
    4.2868    0.8250    0.0000 N   0  0  0  0  0  0  0  0  0  0  0  0
    4.2868    0.0000    0.0000 H   0  0  0  0  0  0  0  0  0  0  0  0
    7.1447    0.8250    0.0000 H   0  0  0  0  0  0  0  0  0  0  0  0
    6.1283    3.1895    0.0000 H   0  0  0  0  0  0  0  0  0  0  0  0
  1  2  2  0  0  0  0
  2  3  1  0  0  0  0
  3  4  1  0  0  0  0
  3  5  1  0  0  0  0
  3  6  1  0  0  0  0
  6  7  1  0  0  0  0
  7  8  2  0  0  0  0
  7  9  1  0  0  0  0
  9 10  1  0  0  0  0
 10 11  2  0  0  0  0
 11 12  1  0  0  0  0
 11 13  1  0  0  0  0
 13 14  2  0  0  0  0
 14 15  1  0  0  0  0
 14 16  1  0  0  0  0
 16 17  2  0  0  0  0
 17 18  1  0  0  0  0
 18 19  2  0  0  0  0
 19 20  1  0  0  0  0
 20 21  1  0  0  0  0
 20 22  2  0  0  0  0
 10 22  1  0  0  0  0
 16 22  1  0  0  0  0
 19 23  1  0  0  0  0
 18 24  1  0  0  0  0
 17 25  1  0  0  0  0
  9 26  1  0  0  0  0
  6 27  1  0  0  0  0
  6 28  1  0  0  0  0
 28 29  2  0  0  0  0
 29 30  1  0  0  0  0
 30 31  1  0  0  0  0
 30 32  2  0  0  0  0
 32 33  1  0  0  0  0
 33 34  1  0  0  0  0
 33 35  2  0  0  0  0
 28 35  1  0  0  0  0
 35 36  1  0  0  0  0
  2 36  1  0  0  0  0
 36 37  1  0  0  0  0
 32 38  1  0  0  0  0
 29 39  1  0  0  0  0
M  END
> <Potency>
3.03560472236294

> <pIC50>
5.5177547802313684

> <Outcome>
Active

> <is_active>
1

$$$$

  Mrv1921 08232120312D          

 42 44  0  0  0  0            999 V2000
    5.0013   -1.2375    0.0000 C   0  0  0  0  0  0  0  0  0  0  0  0
    4.2868   -0.8250    0.0000 N   0  0  0  0  0  0  0  0  0  0  0  0
    3.5724   -1.2375    0.0000 C   0  0  0  0  0  0  0  0  0  0  0  0
    3.1599   -0.5230    0.0000 H   0  0  0  0  0  0  0  0  0  0  0  0
    2.8579   -1.6500    0.0000 H   0  0  0  0  0  0  0  0  0  0  0  0
    3.9849   -1.9520    0.0000 H   0  0  0  0  0  0  0  0  0  0  0  0
    4.2868    0.0000    0.0000 C   0  0  0  0  0  0  0  0  0  0  0  0
    5.0013    0.4125    0.0000 C   0  0  0  0  0  0  0  0  0  0  0  0
    5.0013    1.2375    0.0000 O   0  0  0  0  0  0  0  0  0  0  0  0
    5.7158    0.0000    0.0000 N   0  0  0  0  0  0  0  0  0  0  0  0
    6.4302    0.4125    0.0000 C   0  0  0  0  0  0  0  0  0  0  0  0
    6.4302    1.2375    0.0000 C   0  0  0  0  0  0  0  0  0  0  0  0
    5.7158    1.6500    0.0000 H   0  0  0  0  0  0  0  0  0  0  0  0
    7.1447    1.6500    0.0000 N   0  0  0  0  0  0  0  0  0  0  0  0
    7.8592    1.2375    0.0000 C   0  0  0  0  0  0  0  0  0  0  0  0
    8.5737    1.6500    0.0000 H   0  0  0  0  0  0  0  0  0  0  0  0
    7.8592    0.4125    0.0000 C   0  0  0  0  0  0  0  0  0  0  0  0
    8.5737    0.0000    0.0000 C   0  0  0  0  0  0  0  0  0  0  0  0
    8.5737   -0.8250    0.0000 C   0  0  0  0  0  0  0  0  0  0  0  0
    7.8592   -1.2375    0.0000 C   0  0  0  0  0  0  0  0  0  0  0  0
    7.1447   -0.8250    0.0000 C   0  0  0  0  0  0  0  0  0  0  0  0
    6.8227   -1.5846    0.0000 H   0  0  0  0  0  0  0  0  0  0  0  0
    7.1447    0.0000    0.0000 C   0  0  0  0  0  0  0  0  0  0  0  0
    7.8592   -2.0625    0.0000 H   0  0  0  0  0  0  0  0  0  0  0  0
    9.2881   -1.2375    0.0000 H   0  0  0  0  0  0  0  0  0  0  0  0
    9.2881    0.4125    0.0000 H   0  0  0  0  0  0  0  0  0  0  0  0
    6.2991   -0.5834    0.0000 H   0  0  0  0  0  0  0  0  0  0  0  0
    3.5724    0.4125    0.0000 C   0  0  0  0  0  0  0  0  0  0  0  0
    2.8579    0.0000    0.0000 C   0  0  0  0  0  0  0  0  0  0  0  0
    2.2745   -0.5834    0.0000 H   0  0  0  0  0  0  0  0  0  0  0  0
    2.1434    0.4125    0.0000 C   0  0  0  0  0  0  0  0  0  0  0  0
    1.4289    0.0000    0.0000 H   0  0  0  0  0  0  0  0  0  0  0  0
    2.1434    1.2375    0.0000 C   0  0  0  0  0  0  0  0  0  0  0  0
    1.4289    1.6500    0.0000 Cl  0  0  0  0  0  0  0  0  0  0  0  0
    2.8579    1.6500    0.0000 C   0  0  0  0  0  0  0  0  0  0  0  0
    2.8579    2.4750    0.0000 Cl  0  0  0  0  0  0  0  0  0  0  0  0
    3.5724    1.2375    0.0000 C   0  0  0  0  0  0  0  0  0  0  0  0
    4.2868    1.6500    0.0000 H   0  0  0  0  0  0  0  0  0  0  0  0
    5.0013   -0.4125    0.0000 H   0  0  0  0  0  0  0  0  0  0  0  0
    4.5888   -1.9520    0.0000 H   0  0  0  0  0  0  0  0  0  0  0  0
    5.7158   -1.6500    0.0000 H   0  0  0  0  0  0  0  0  0  0  0  0
    5.4138   -0.5230    0.0000 H   0  0  0  0  0  0  0  0  0  0  0  0
  1  2  1  0  0  0  0
  2  3  1  0  0  0  0
  3  4  1  0  0  0  0
  3  5  1  0  0  0  0
  3  6  1  0  0  0  0
  2  7  1  0  0  0  0
  7  8  1  0  0  0  0
  8  9  2  0  0  0  0
  8 10  1  0  0  0  0
 10 11  1  0  0  0  0
 11 12  2  0  0  0  0
 12 13  1  0  0  0  0
 12 14  1  0  0  0  0
 14 15  2  0  0  0  0
 15 16  1  0  0  0  0
 15 17  1  0  0  0  0
 17 18  2  0  0  0  0
 18 19  1  0  0  0  0
 19 20  2  0  0  0  0
 20 21  1  0  0  0  0
 21 22  1  0  0  0  0
 21 23  2  0  0  0  0
 11 23  1  0  0  0  0
 17 23  1  0  0  0  0
 20 24  1  0  0  0  0
 19 25  1  0  0  0  0
 18 26  1  0  0  0  0
 10 27  1  0  0  0  0
  7 28  1  0  0  0  0
 28 29  2  0  0  0  0
 29 30  1  0  0  0  0
 29 31  1  0  0  0  0
 31 32  1  0  0  0  0
 31 33  2  0  0  0  0
 33 34  1  0  0  0  0
 33 35  1  0  0  0  0
 35 36  1  0  0  0  0
 35 37  2  0  0  0  0
 28 37  1  0  0  0  0
 37 38  1  0  0  0  0
  7 39  1  0  0  0  0
  1 40  1  0  0  0  0
  1 41  1  0  0  0  0
  1 42  1  0  0  0  0
M  END
> <Potency>
4.27381043283066

> <pIC50>
5.36918474511098

> <Outcome>
Active

> <is_active>
1

$$$$

  Mrv1921 08232120312D          

 53 56  0  0  0  0            999 V2000
    5.0013   -5.3625    0.0000 C   0  0  0  0  0  0  0  0  0  0  0  0
    4.2868   -4.9500    0.0000 N   0  0  0  0  0  0  0  0  0  0  0  0
    3.5724   -5.3625    0.0000 C   0  0  0  0  0  0  0  0  0  0  0  0
    3.1599   -4.6480    0.0000 H   0  0  0  0  0  0  0  0  0  0  0  0
    2.8579   -5.7750    0.0000 H   0  0  0  0  0  0  0  0  0  0  0  0
    3.9849   -6.0770    0.0000 H   0  0  0  0  0  0  0  0  0  0  0  0
    4.2868   -4.1250    0.0000 C   0  0  0  0  0  0  0  0  0  0  0  0
    5.0013   -3.7125    0.0000 O   0  0  0  0  0  0  0  0  0  0  0  0
    3.5724   -3.7125    0.0000 C   0  0  0  0  0  0  0  0  0  0  0  0
    3.5724   -2.8875    0.0000 N   0  0  0  0  0  0  0  0  0  0  0  0
    2.8579   -2.4750    0.0000 C   0  0  0  0  0  0  0  0  0  0  0  0
    2.0343   -2.5230    0.0000 H   0  0  0  0  0  0  0  0  0  0  0  0
    2.4045   -3.1643    0.0000 H   0  0  0  0  0  0  0  0  0  0  0  0
    2.8579   -1.6500    0.0000 C   0  0  0  0  0  0  0  0  0  0  0  0
    2.8579   -0.8250    0.0000 H   0  0  0  0  0  0  0  0  0  0  0  0
    3.5724   -2.0625    0.0000 H   0  0  0  0  0  0  0  0  0  0  0  0
    3.5724   -1.2375    0.0000 C   0  0  0  0  0  0  0  0  0  0  0  0
    3.5724   -0.4125    0.0000 C   0  0  0  0  0  0  0  0  0  0  0  0
    4.2868    0.0000    0.0000 O   0  0  0  0  0  0  0  0  0  0  0  0
    2.8579    0.0000    0.0000 N   0  0  0  0  0  0  0  0  0  0  0  0
    2.1434   -0.4125    0.0000 C   0  0  0  0  0  0  0  0  0  0  0  0
    2.1434   -1.2375    0.0000 C   0  0  0  0  0  0  0  0  0  0  0  0
    2.1434   -2.0625    0.0000 H   0  0  0  0  0  0  0  0  0  0  0  0
    1.4289   -1.6500    0.0000 N   0  0  0  0  0  0  0  0  0  0  0  0
    0.7145   -1.2375    0.0000 C   0  0  0  0  0  0  0  0  0  0  0  0
    0.0000   -1.6500    0.0000 H   0  0  0  0  0  0  0  0  0  0  0  0
    0.7145   -0.4125    0.0000 C   0  0  0  0  0  0  0  0  0  0  0  0
    0.0000    0.0000    0.0000 C   0  0  0  0  0  0  0  0  0  0  0  0
    0.0000    0.8250    0.0000 C   0  0  0  0  0  0  0  0  0  0  0  0
    0.7145    1.2375    0.0000 C   0  0  0  0  0  0  0  0  0  0  0  0
    1.4289    0.8250    0.0000 C   0  0  0  0  0  0  0  0  0  0  0  0
    2.1434    1.2375    0.0000 H   0  0  0  0  0  0  0  0  0  0  0  0
    1.4289    0.0000    0.0000 C   0  0  0  0  0  0  0  0  0  0  0  0
    0.7145    2.0625    0.0000 H   0  0  0  0  0  0  0  0  0  0  0  0
   -0.7145    1.2375    0.0000 H   0  0  0  0  0  0  0  0  0  0  0  0
   -0.7145   -0.4125    0.0000 H   0  0  0  0  0  0  0  0  0  0  0  0
    2.8579    0.8250    0.0000 H   0  0  0  0  0  0  0  0  0  0  0  0
    4.2868   -0.8250    0.0000 H   0  0  0  0  0  0  0  0  0  0  0  0
    4.2868   -1.6500    0.0000 C   0  0  0  0  0  0  0  0  0  0  0  0
    5.0013   -1.2375    0.0000 C   0  0  0  0  0  0  0  0  0  0  0  0
    5.7158   -1.6500    0.0000 C   0  0  0  0  0  0  0  0  0  0  0  0
    6.4302   -1.2375    0.0000 Cl  0  0  0  0  0  0  0  0  0  0  0  0
    5.7158   -2.4750    0.0000 C   0  0  0  0  0  0  0  0  0  0  0  0
    5.0013   -2.8875    0.0000 C   0  0  0  0  0  0  0  0  0  0  0  0
    4.2868   -3.3000    0.0000 H   0  0  0  0  0  0  0  0  0  0  0  0
    4.2868   -2.4750    0.0000 C   0  0  0  0  0  0  0  0  0  0  0  0
    6.4302   -2.8875    0.0000 H   0  0  0  0  0  0  0  0  0  0  0  0
    5.4138   -0.5230    0.0000 H   0  0  0  0  0  0  0  0  0  0  0  0
    2.7488   -3.7605    0.0000 H   0  0  0  0  0  0  0  0  0  0  0  0
    3.1190   -4.4018    0.0000 H   0  0  0  0  0  0  0  0  0  0  0  0
    4.5888   -6.0770    0.0000 H   0  0  0  0  0  0  0  0  0  0  0  0
    5.7158   -5.7750    0.0000 H   0  0  0  0  0  0  0  0  0  0  0  0
    5.4138   -4.6480    0.0000 H   0  0  0  0  0  0  0  0  0  0  0  0
  1  2  1  0  0  0  0
  2  3  1  0  0  0  0
  3  4  1  0  0  0  0
  3  5  1  0  0  0  0
  3  6  1  0  0  0  0
  2  7  1  0  0  0  0
  7  8  2  0  0  0  0
  7  9  1  0  0  0  0
  9 10  1  0  0  0  0
 10 11  1  0  0  0  0
 11 12  1  0  0  0  0
 11 13  1  0  0  0  0
 11 14  1  0  0  0  0
 14 15  1  0  0  0  0
 14 16  1  0  0  0  0
 14 17  1  0  0  0  0
 17 18  1  0  0  0  0
 18 19  2  0  0  0  0
 18 20  1  0  0  0  0
 20 21  1  0  0  0  0
 21 22  2  0  0  0  0
 22 23  1  0  0  0  0
 22 24  1  0  0  0  0
 24 25  2  0  0  0  0
 25 26  1  0  0  0  0
 25 27  1  0  0  0  0
 27 28  2  0  0  0  0
 28 29  1  0  0  0  0
 29 30  2  0  0  0  0
 30 31  1  0  0  0  0
 31 32  1  0  0  0  0
 31 33  2  0  0  0  0
 21 33  1  0  0  0  0
 27 33  1  0  0  0  0
 30 34  1  0  0  0  0
 29 35  1  0  0  0  0
 28 36  1  0  0  0  0
 20 37  1  0  0  0  0
 17 38  1  0  0  0  0
 17 39  1  0  0  0  0
 39 40  2  0  0  0  0
 40 41  1  0  0  0  0
 41 42  1  0  0  0  0
 41 43  2  0  0  0  0
 43 44  1  0  0  0  0
 44 45  1  0  0  0  0
 44 46  2  0  0  0  0
 10 46  1  0  0  0  0
 39 46  1  0  0  0  0
 43 47  1  0  0  0  0
 40 48  1  0  0  0  0
  9 49  1  0  0  0  0
  9 50  1  0  0  0  0
  1 51  1  0  0  0  0
  1 52  1  0  0  0  0
  1 53  1  0  0  0  0
M  END
> <Potency>
2.54297041267788

> <pIC50>
5.594658692787516

> <Outcome>
Active

> <is_active>
1

$$$$

  Mrv1921 08232120312D          

 59 63  0  0  0  0            999 V2000
   -0.4752   -1.7084    0.0000 O   0  0  0  0  0  0  0  0  0  0  0  0
    0.0768   -2.3215    0.0000 C   0  0  0  0  0  0  0  0  0  0  0  0
    0.8838   -2.1500    0.0000 C   0  0  0  0  0  0  0  0  0  0  0  0
    1.1387   -1.3654    0.0000 N   0  0  0  0  0  0  0  0  0  0  0  0
    0.6538   -0.6979    0.0000 N   0  0  0  0  0  0  0  0  0  0  0  0
    1.1387   -0.0305    0.0000 N   0  0  0  0  0  0  0  0  0  0  0  0
    1.9233   -0.2854    0.0000 C   0  0  0  0  0  0  0  0  0  0  0  0
    2.6378    0.1271    0.0000 C   0  0  0  0  0  0  0  0  0  0  0  0
    3.3523   -0.2854    0.0000 C   0  0  0  0  0  0  0  0  0  0  0  0
    3.3523   -1.1104    0.0000 C   0  0  0  0  0  0  0  0  0  0  0  0
    2.6378   -1.5229    0.0000 C   0  0  0  0  0  0  0  0  0  0  0  0
    2.6378   -2.3479    0.0000 H   0  0  0  0  0  0  0  0  0  0  0  0
    1.9233   -1.1104    0.0000 C   0  0  0  0  0  0  0  0  0  0  0  0
    4.0668   -1.5229    0.0000 H   0  0  0  0  0  0  0  0  0  0  0  0
    4.0668    0.1271    0.0000 H   0  0  0  0  0  0  0  0  0  0  0  0
    2.6378    0.9521    0.0000 H   0  0  0  0  0  0  0  0  0  0  0  0
    1.1019   -2.9456    0.0000 H   0  0  0  0  0  0  0  0  0  0  0  0
    1.6523   -2.4501    0.0000 H   0  0  0  0  0  0  0  0  0  0  0  0
   -0.1781   -3.1062    0.0000 N   0  0  0  0  0  0  0  0  0  0  0  0
    0.3739   -3.7192    0.0000 C   0  0  0  0  0  0  0  0  0  0  0  0
    0.1190   -4.5039    0.0000 C   0  0  0  0  0  0  0  0  0  0  0  0
    0.6710   -5.1170    0.0000 C   0  0  0  0  0  0  0  0  0  0  0  0
    1.4780   -4.9454    0.0000 H   0  0  0  0  0  0  0  0  0  0  0  0
    0.4161   -5.9016    0.0000 C   0  0  0  0  0  0  0  0  0  0  0  0
    0.9681   -6.5147    0.0000 H   0  0  0  0  0  0  0  0  0  0  0  0
   -0.3909   -6.0731    0.0000 C   0  0  0  0  0  0  0  0  0  0  0  0
   -0.6459   -6.8577    0.0000 H   0  0  0  0  0  0  0  0  0  0  0  0
   -0.9429   -5.4600    0.0000 C   0  0  0  0  0  0  0  0  0  0  0  0
   -1.7499   -5.6315    0.0000 Cl  0  0  0  0  0  0  0  0  0  0  0  0
   -0.6880   -4.6754    0.0000 C   0  0  0  0  0  0  0  0  0  0  0  0
   -0.4331   -3.8908    0.0000 H   0  0  0  0  0  0  0  0  0  0  0  0
    1.1720   -3.9281    0.0000 H   0  0  0  0  0  0  0  0  0  0  0  0
    1.0181   -3.2038    0.0000 H   0  0  0  0  0  0  0  0  0  0  0  0
   -0.9851   -3.2777    0.0000 C   0  0  0  0  0  0  0  0  0  0  0  0
   -1.2400   -4.0623    0.0000 C   0  0  0  0  0  0  0  0  0  0  0  0
   -1.4950   -4.8469    0.0000 H   0  0  0  0  0  0  0  0  0  0  0  0
   -2.0470   -4.2338    0.0000 C   0  0  0  0  0  0  0  0  0  0  0  0
   -2.6601   -4.7859    0.0000 H   0  0  0  0  0  0  0  0  0  0  0  0
   -2.5990   -3.6207    0.0000 C   0  0  0  0  0  0  0  0  0  0  0  0
   -3.4060   -3.7923    0.0000 N   0  0  0  0  0  0  0  0  0  0  0  0
   -3.6610   -4.5769    0.0000 C   0  0  0  0  0  0  0  0  0  0  0  0
   -3.4428   -5.3725    0.0000 H   0  0  0  0  0  0  0  0  0  0  0  0
   -2.8925   -4.8770    0.0000 H   0  0  0  0  0  0  0  0  0  0  0  0
   -4.4679   -4.7484    0.0000 C   0  0  0  0  0  0  0  0  0  0  0  0
   -5.0479   -5.3352    0.0000 H   0  0  0  0  0  0  0  0  0  0  0  0
   -4.3436   -5.5640    0.0000 H   0  0  0  0  0  0  0  0  0  0  0  0
   -5.0200   -4.1353    0.0000 C   0  0  0  0  0  0  0  0  0  0  0  0
   -5.8181   -3.9264    0.0000 H   0  0  0  0  0  0  0  0  0  0  0  0
   -5.6641   -4.6508    0.0000 H   0  0  0  0  0  0  0  0  0  0  0  0
   -4.7650   -3.3507    0.0000 C   0  0  0  0  0  0  0  0  0  0  0  0
   -4.9832   -2.5551    0.0000 H   0  0  0  0  0  0  0  0  0  0  0  0
   -5.5335   -3.0506    0.0000 H   0  0  0  0  0  0  0  0  0  0  0  0
   -3.9580   -3.1792    0.0000 C   0  0  0  0  0  0  0  0  0  0  0  0
   -3.3781   -2.5924    0.0000 H   0  0  0  0  0  0  0  0  0  0  0  0
   -4.0824   -2.3636    0.0000 H   0  0  0  0  0  0  0  0  0  0  0  0
   -2.3441   -2.8361    0.0000 C   0  0  0  0  0  0  0  0  0  0  0  0
   -2.8961   -2.2230    0.0000 H   0  0  0  0  0  0  0  0  0  0  0  0
   -1.5371   -2.6646    0.0000 C   0  0  0  0  0  0  0  0  0  0  0  0
   -1.2822   -1.8800    0.0000 H   0  0  0  0  0  0  0  0  0  0  0  0
  1  2  2  0  0  0  0
  2  3  1  0  0  0  0
  3  4  1  0  0  0  0
  4  5  1  0  0  0  0
  5  6  2  0  0  0  0
  6  7  1  0  0  0  0
  7  8  2  0  0  0  0
  8  9  1  0  0  0  0
  9 10  2  0  0  0  0
 10 11  1  0  0  0  0
 11 12  1  0  0  0  0
 11 13  2  0  0  0  0
  4 13  1  0  0  0  0
  7 13  1  0  0  0  0
 10 14  1  0  0  0  0
  9 15  1  0  0  0  0
  8 16  1  0  0  0  0
  3 17  1  0  0  0  0
  3 18  1  0  0  0  0
  2 19  1  0  0  0  0
 19 20  1  0  0  0  0
 20 21  1  0  0  0  0
 21 22  2  0  0  0  0
 22 23  1  0  0  0  0
 22 24  1  0  0  0  0
 24 25  1  0  0  0  0
 24 26  2  0  0  0  0
 26 27  1  0  0  0  0
 26 28  1  0  0  0  0
 28 29  1  0  0  0  0
 28 30  2  0  0  0  0
 21 30  1  0  0  0  0
 30 31  1  0  0  0  0
 20 32  1  0  0  0  0
 20 33  1  0  0  0  0
 19 34  1  0  0  0  0
 34 35  2  0  0  0  0
 35 36  1  0  0  0  0
 35 37  1  0  0  0  0
 37 38  1  0  0  0  0
 37 39  2  0  0  0  0
 39 40  1  0  0  0  0
 40 41  1  0  0  0  0
 41 42  1  0  0  0  0
 41 43  1  0  0  0  0
 41 44  1  0  0  0  0
 44 45  1  0  0  0  0
 44 46  1  0  0  0  0
 44 47  1  0  0  0  0
 47 48  1  0  0  0  0
 47 49  1  0  0  0  0
 47 50  1  0  0  0  0
 50 51  1  0  0  0  0
 50 52  1  0  0  0  0
 50 53  1  0  0  0  0
 40 53  1  0  0  0  0
 53 54  1  0  0  0  0
 53 55  1  0  0  0  0
 39 56  1  0  0  0  0
 56 57  1  0  0  0  0
 56 58  2  0  0  0  0
 34 58  1  0  0  0  0
 58 59  1  0  0  0  0
M  END
> <Potency>
3.64673511092023

> <pIC50>
5.438095781529556

> <Outcome>
Active

> <is_active>
1

$$$$

  Mrv1921 08232120312D          

 52 55  0  0  0  0            999 V2000
   -3.6610   -4.5769    0.0000 C   0  0  0  0  0  0  0  0  0  0  0  0
   -3.4060   -3.7923    0.0000 N   0  0  0  0  0  0  0  0  0  0  0  0
   -3.9580   -3.1792    0.0000 C   0  0  0  0  0  0  0  0  0  0  0  0
   -3.3450   -2.6271    0.0000 H   0  0  0  0  0  0  0  0  0  0  0  0
   -4.5101   -2.5661    0.0000 H   0  0  0  0  0  0  0  0  0  0  0  0
   -4.5711   -3.7312    0.0000 H   0  0  0  0  0  0  0  0  0  0  0  0
   -2.5990   -3.6207    0.0000 C   0  0  0  0  0  0  0  0  0  0  0  0
   -2.3441   -2.8361    0.0000 C   0  0  0  0  0  0  0  0  0  0  0  0
   -2.8961   -2.2230    0.0000 H   0  0  0  0  0  0  0  0  0  0  0  0
   -1.5371   -2.6646    0.0000 C   0  0  0  0  0  0  0  0  0  0  0  0
   -1.2822   -1.8800    0.0000 H   0  0  0  0  0  0  0  0  0  0  0  0
   -0.9851   -3.2777    0.0000 C   0  0  0  0  0  0  0  0  0  0  0  0
   -0.1781   -3.1062    0.0000 N   0  0  0  0  0  0  0  0  0  0  0  0
    0.3739   -3.7192    0.0000 C   0  0  0  0  0  0  0  0  0  0  0  0
    0.1190   -4.5039    0.0000 C   0  0  0  0  0  0  0  0  0  0  0  0
    0.6710   -5.1170    0.0000 C   0  0  0  0  0  0  0  0  0  0  0  0
    1.4780   -4.9454    0.0000 H   0  0  0  0  0  0  0  0  0  0  0  0
    0.4161   -5.9016    0.0000 C   0  0  0  0  0  0  0  0  0  0  0  0
    0.9681   -6.5147    0.0000 H   0  0  0  0  0  0  0  0  0  0  0  0
   -0.3909   -6.0731    0.0000 C   0  0  0  0  0  0  0  0  0  0  0  0
   -0.6459   -6.8577    0.0000 H   0  0  0  0  0  0  0  0  0  0  0  0
   -0.9429   -5.4600    0.0000 C   0  0  0  0  0  0  0  0  0  0  0  0
   -1.7499   -5.6315    0.0000 Cl  0  0  0  0  0  0  0  0  0  0  0  0
   -0.6880   -4.6754    0.0000 C   0  0  0  0  0  0  0  0  0  0  0  0
   -0.4331   -3.8908    0.0000 H   0  0  0  0  0  0  0  0  0  0  0  0
    1.1720   -3.9281    0.0000 H   0  0  0  0  0  0  0  0  0  0  0  0
    1.0181   -3.2038    0.0000 H   0  0  0  0  0  0  0  0  0  0  0  0
    0.0768   -2.3215    0.0000 C   0  0  0  0  0  0  0  0  0  0  0  0
   -0.4752   -1.7084    0.0000 O   0  0  0  0  0  0  0  0  0  0  0  0
    0.8838   -2.1500    0.0000 C   0  0  0  0  0  0  0  0  0  0  0  0
    1.1387   -1.3654    0.0000 N   0  0  0  0  0  0  0  0  0  0  0  0
    0.6538   -0.6979    0.0000 N   0  0  0  0  0  0  0  0  0  0  0  0
    1.1387   -0.0305    0.0000 N   0  0  0  0  0  0  0  0  0  0  0  0
    1.9233   -0.2854    0.0000 C   0  0  0  0  0  0  0  0  0  0  0  0
    2.6378    0.1271    0.0000 C   0  0  0  0  0  0  0  0  0  0  0  0
    3.3523   -0.2854    0.0000 C   0  0  0  0  0  0  0  0  0  0  0  0
    3.3523   -1.1104    0.0000 C   0  0  0  0  0  0  0  0  0  0  0  0
    2.6378   -1.5229    0.0000 C   0  0  0  0  0  0  0  0  0  0  0  0
    2.6378   -2.3479    0.0000 H   0  0  0  0  0  0  0  0  0  0  0  0
    1.9233   -1.1104    0.0000 C   0  0  0  0  0  0  0  0  0  0  0  0
    4.0668   -1.5229    0.0000 H   0  0  0  0  0  0  0  0  0  0  0  0
    4.0668    0.1271    0.0000 H   0  0  0  0  0  0  0  0  0  0  0  0
    2.6378    0.9521    0.0000 H   0  0  0  0  0  0  0  0  0  0  0  0
    1.1019   -2.9456    0.0000 H   0  0  0  0  0  0  0  0  0  0  0  0
    1.6523   -2.4501    0.0000 H   0  0  0  0  0  0  0  0  0  0  0  0
   -1.2400   -4.0623    0.0000 C   0  0  0  0  0  0  0  0  0  0  0  0
   -1.4950   -4.8469    0.0000 H   0  0  0  0  0  0  0  0  0  0  0  0
   -2.0470   -4.2338    0.0000 C   0  0  0  0  0  0  0  0  0  0  0  0
   -2.6601   -4.7859    0.0000 H   0  0  0  0  0  0  0  0  0  0  0  0
   -4.4456   -4.3219    0.0000 H   0  0  0  0  0  0  0  0  0  0  0  0
   -3.9159   -5.3615    0.0000 H   0  0  0  0  0  0  0  0  0  0  0  0
   -2.8763   -4.8318    0.0000 H   0  0  0  0  0  0  0  0  0  0  0  0
  1  2  1  0  0  0  0
  2  3  1  0  0  0  0
  3  4  1  0  0  0  0
  3  5  1  0  0  0  0
  3  6  1  0  0  0  0
  2  7  1  0  0  0  0
  7  8  2  0  0  0  0
  8  9  1  0  0  0  0
  8 10  1  0  0  0  0
 10 11  1  0  0  0  0
 10 12  2  0  0  0  0
 12 13  1  0  0  0  0
 13 14  1  0  0  0  0
 14 15  1  0  0  0  0
 15 16  2  0  0  0  0
 16 17  1  0  0  0  0
 16 18  1  0  0  0  0
 18 19  1  0  0  0  0
 18 20  2  0  0  0  0
 20 21  1  0  0  0  0
 20 22  1  0  0  0  0
 22 23  1  0  0  0  0
 22 24  2  0  0  0  0
 15 24  1  0  0  0  0
 24 25  1  0  0  0  0
 14 26  1  0  0  0  0
 14 27  1  0  0  0  0
 13 28  1  0  0  0  0
 28 29  2  0  0  0  0
 28 30  1  0  0  0  0
 30 31  1  0  0  0  0
 31 32  1  0  0  0  0
 32 33  2  0  0  0  0
 33 34  1  0  0  0  0
 34 35  2  0  0  0  0
 35 36  1  0  0  0  0
 36 37  2  0  0  0  0
 37 38  1  0  0  0  0
 38 39  1  0  0  0  0
 38 40  2  0  0  0  0
 31 40  1  0  0  0  0
 34 40  1  0  0  0  0
 37 41  1  0  0  0  0
 36 42  1  0  0  0  0
 35 43  1  0  0  0  0
 30 44  1  0  0  0  0
 30 45  1  0  0  0  0
 12 46  1  0  0  0  0
 46 47  1  0  0  0  0
 46 48  2  0  0  0  0
  7 48  1  0  0  0  0
 48 49  1  0  0  0  0
  1 50  1  0  0  0  0
  1 51  1  0  0  0  0
  1 52  1  0  0  0  0
M  END
> <Potency>
0.496758543375736

> <pIC50>
6.303854655050491

> <Outcome>
Active

> <is_active>
1

$$$$

  Mrv1921 08232120312D          

 32 34  0  0  0  0            999 V2000
   -0.4752   -1.7084    0.0000 O   0  0  0  0  0  0  0  0  0  0  0  0
    0.0768   -2.3215    0.0000 C   0  0  0  0  0  0  0  0  0  0  0  0
   -0.1781   -3.1062    0.0000 C   0  0  0  0  0  0  0  0  0  0  0  0
   -0.9851   -3.2777    0.0000 C   0  0  0  0  0  0  0  0  0  0  0  0
   -1.2400   -4.0623    0.0000 C   0  0  0  0  0  0  0  0  0  0  0  0
   -0.6880   -4.6754    0.0000 H   0  0  0  0  0  0  0  0  0  0  0  0
   -2.0470   -4.2338    0.0000 C   0  0  0  0  0  0  0  0  0  0  0  0
   -2.3020   -5.0184    0.0000 H   0  0  0  0  0  0  0  0  0  0  0  0
   -2.5990   -3.6207    0.0000 C   0  0  0  0  0  0  0  0  0  0  0  0
   -3.4060   -3.7923    0.0000 H   0  0  0  0  0  0  0  0  0  0  0  0
   -2.3441   -2.8361    0.0000 C   0  0  0  0  0  0  0  0  0  0  0  0
   -2.8961   -2.2230    0.0000 Cl  0  0  0  0  0  0  0  0  0  0  0  0
   -1.5371   -2.6646    0.0000 C   0  0  0  0  0  0  0  0  0  0  0  0
   -1.2822   -1.8800    0.0000 H   0  0  0  0  0  0  0  0  0  0  0  0
    0.0400   -3.9018    0.0000 H   0  0  0  0  0  0  0  0  0  0  0  0
    0.5903   -3.4063    0.0000 H   0  0  0  0  0  0  0  0  0  0  0  0
    0.8838   -2.1500    0.0000 N   0  0  0  0  0  0  0  0  0  0  0  0
    1.1387   -1.3654    0.0000 C   0  0  0  0  0  0  0  0  0  0  0  0
    0.6538   -0.6979    0.0000 C   0  0  0  0  0  0  0  0  0  0  0  0
   -0.1712   -0.6979    0.0000 H   0  0  0  0  0  0  0  0  0  0  0  0
    1.1387   -0.0305    0.0000 N   0  0  0  0  0  0  0  0  0  0  0  0
    1.9233   -0.2854    0.0000 C   0  0  0  0  0  0  0  0  0  0  0  0
    2.6378    0.1271    0.0000 C   0  0  0  0  0  0  0  0  0  0  0  0
    3.3523   -0.2854    0.0000 C   0  0  0  0  0  0  0  0  0  0  0  0
    3.3523   -1.1104    0.0000 C   0  0  0  0  0  0  0  0  0  0  0  0
    2.6378   -1.5229    0.0000 C   0  0  0  0  0  0  0  0  0  0  0  0
    2.6378   -2.3479    0.0000 H   0  0  0  0  0  0  0  0  0  0  0  0
    1.9233   -1.1104    0.0000 N   0  0  0  0  0  0  0  0  0  0  0  0
    4.0668   -1.5229    0.0000 H   0  0  0  0  0  0  0  0  0  0  0  0
    4.0668    0.1271    0.0000 H   0  0  0  0  0  0  0  0  0  0  0  0
    2.6378    0.9521    0.0000 H   0  0  0  0  0  0  0  0  0  0  0  0
    1.4358   -2.7631    0.0000 H   0  0  0  0  0  0  0  0  0  0  0  0
  1  2  2  0  0  0  0
  2  3  1  0  0  0  0
  3  4  1  0  0  0  0
  4  5  2  0  0  0  0
  5  6  1  0  0  0  0
  5  7  1  0  0  0  0
  7  8  1  0  0  0  0
  7  9  2  0  0  0  0
  9 10  1  0  0  0  0
  9 11  1  0  0  0  0
 11 12  1  0  0  0  0
 11 13  2  0  0  0  0
  4 13  1  0  0  0  0
 13 14  1  0  0  0  0
  3 15  1  0  0  0  0
  3 16  1  0  0  0  0
  2 17  1  0  0  0  0
 17 18  1  0  0  0  0
 18 19  2  0  0  0  0
 19 20  1  0  0  0  0
 19 21  1  0  0  0  0
 21 22  2  0  0  0  0
 22 23  1  0  0  0  0
 23 24  2  0  0  0  0
 24 25  1  0  0  0  0
 25 26  2  0  0  0  0
 26 27  1  0  0  0  0
 26 28  1  0  0  0  0
 18 28  1  0  0  0  0
 22 28  1  0  0  0  0
 25 29  1  0  0  0  0
 24 30  1  0  0  0  0
 23 31  1  0  0  0  0
 17 32  1  0  0  0  0
M  END
> <Potency>
8.03394500289595

> <pIC50>
5.0950711455967

> <Outcome>
Active

> <is_active>
1

$$$$

  Mrv1921 08232120312D          

 32 34  0  0  0  0            999 V2000
   -0.4752   -1.7084    0.0000 O   0  0  0  0  0  0  0  0  0  0  0  0
    0.0768   -2.3215    0.0000 C   0  0  0  0  0  0  0  0  0  0  0  0
   -0.1781   -3.1062    0.0000 C   0  0  0  0  0  0  0  0  0  0  0  0
   -0.9851   -3.2777    0.0000 C   0  0  0  0  0  0  0  0  0  0  0  0
   -1.2400   -4.0623    0.0000 C   0  0  0  0  0  0  0  0  0  0  0  0
   -0.6880   -4.6754    0.0000 H   0  0  0  0  0  0  0  0  0  0  0  0
   -2.0470   -4.2338    0.0000 C   0  0  0  0  0  0  0  0  0  0  0  0
   -2.3020   -5.0184    0.0000 H   0  0  0  0  0  0  0  0  0  0  0  0
   -2.5990   -3.6207    0.0000 C   0  0  0  0  0  0  0  0  0  0  0  0
   -3.4060   -3.7923    0.0000 H   0  0  0  0  0  0  0  0  0  0  0  0
   -2.3441   -2.8361    0.0000 C   0  0  0  0  0  0  0  0  0  0  0  0
   -2.8961   -2.2230    0.0000 Cl  0  0  0  0  0  0  0  0  0  0  0  0
   -1.5371   -2.6646    0.0000 C   0  0  0  0  0  0  0  0  0  0  0  0
   -1.2822   -1.8800    0.0000 H   0  0  0  0  0  0  0  0  0  0  0  0
    0.0400   -3.9018    0.0000 H   0  0  0  0  0  0  0  0  0  0  0  0
    0.5903   -3.4063    0.0000 H   0  0  0  0  0  0  0  0  0  0  0  0
    0.8838   -2.1500    0.0000 N   0  0  0  0  0  0  0  0  0  0  0  0
    1.1387   -1.3654    0.0000 N   0  0  0  0  0  0  0  0  0  0  0  0
    0.6538   -0.6979    0.0000 C   0  0  0  0  0  0  0  0  0  0  0  0
   -0.1712   -0.6979    0.0000 H   0  0  0  0  0  0  0  0  0  0  0  0
    1.1387   -0.0305    0.0000 N   0  0  0  0  0  0  0  0  0  0  0  0
    1.9233   -0.2854    0.0000 C   0  0  0  0  0  0  0  0  0  0  0  0
    2.6378    0.1271    0.0000 C   0  0  0  0  0  0  0  0  0  0  0  0
    3.3523   -0.2854    0.0000 C   0  0  0  0  0  0  0  0  0  0  0  0
    3.3523   -1.1104    0.0000 C   0  0  0  0  0  0  0  0  0  0  0  0
    2.6378   -1.5229    0.0000 C   0  0  0  0  0  0  0  0  0  0  0  0
    2.6378   -2.3479    0.0000 H   0  0  0  0  0  0  0  0  0  0  0  0
    1.9233   -1.1104    0.0000 C   0  0  0  0  0  0  0  0  0  0  0  0
    4.0668   -1.5229    0.0000 H   0  0  0  0  0  0  0  0  0  0  0  0
    4.0668    0.1271    0.0000 H   0  0  0  0  0  0  0  0  0  0  0  0
    2.6378    0.9521    0.0000 H   0  0  0  0  0  0  0  0  0  0  0  0
    1.4358   -2.7631    0.0000 H   0  0  0  0  0  0  0  0  0  0  0  0
  1  2  2  0  0  0  0
  2  3  1  0  0  0  0
  3  4  1  0  0  0  0
  4  5  2  0  0  0  0
  5  6  1  0  0  0  0
  5  7  1  0  0  0  0
  7  8  1  0  0  0  0
  7  9  2  0  0  0  0
  9 10  1  0  0  0  0
  9 11  1  0  0  0  0
 11 12  1  0  0  0  0
 11 13  2  0  0  0  0
  4 13  1  0  0  0  0
 13 14  1  0  0  0  0
  3 15  1  0  0  0  0
  3 16  1  0  0  0  0
  2 17  1  0  0  0  0
 17 18  1  0  0  0  0
 18 19  1  0  0  0  0
 19 20  1  0  0  0  0
 19 21  2  0  0  0  0
 21 22  1  0  0  0  0
 22 23  2  0  0  0  0
 23 24  1  0  0  0  0
 24 25  2  0  0  0  0
 25 26  1  0  0  0  0
 26 27  1  0  0  0  0
 26 28  2  0  0  0  0
 18 28  1  0  0  0  0
 22 28  1  0  0  0  0
 25 29  1  0  0  0  0
 24 30  1  0  0  0  0
 23 31  1  0  0  0  0
 17 32  1  0  0  0  0
M  END
> <Potency>
8.30346802415843

> <pIC50>
5.080740482421092

> <Outcome>
Active

> <is_active>
1

$$$$

  Mrv1921 08232120312D          

 65 69  0  0  0  0            999 V2000
   -1.5506    0.1352    0.0000 C   0  0  0  0  0  0  0  0  0  0  0  0
   -0.7381    0.2784    0.0000 N   0  0  0  0  0  0  0  0  0  0  0  0
   -0.2078   -0.3536    0.0000 S   0  0  0  0  0  0  0  0  0  0  0  0
   -0.8398   -0.8839    0.0000 O   0  0  0  0  0  0  0  0  0  0  0  0
    0.4242    0.1767    0.0000 O   0  0  0  0  0  0  0  0  0  0  0  0
    0.3225   -0.9855    0.0000 C   0  0  0  0  0  0  0  0  0  0  0  0
    1.1350   -0.8423    0.0000 C   0  0  0  0  0  0  0  0  0  0  0  0
    1.4171   -0.0670    0.0000 H   0  0  0  0  0  0  0  0  0  0  0  0
    1.6653   -1.4743    0.0000 C   0  0  0  0  0  0  0  0  0  0  0  0
    2.4777   -1.3310    0.0000 C   0  0  0  0  0  0  0  0  0  0  0  0
    2.7599   -0.5558    0.0000 N   0  0  0  0  0  0  0  0  0  0  0  0
    3.5724   -0.4125    0.0000 C   0  0  0  0  0  0  0  0  0  0  0  0
    4.1027   -1.0445    0.0000 C   0  0  0  0  0  0  0  0  0  0  0  0
    4.6330   -0.4125    0.0000 C   0  0  0  0  0  0  0  0  0  0  0  0
    5.4454   -0.5558    0.0000 O   0  0  0  0  0  0  0  0  0  0  0  0
    4.3508    0.3627    0.0000 N   0  0  0  0  0  0  0  0  0  0  0  0
    3.5383    0.5060    0.0000 C   0  0  0  0  0  0  0  0  0  0  0  0
    3.0080   -0.1260    0.0000 C   0  0  0  0  0  0  0  0  0  0  0  0
    2.7259    0.6493    0.0000 H   0  0  0  0  0  0  0  0  0  0  0  0
    2.1956    0.0173    0.0000 N   0  0  0  0  0  0  0  0  0  0  0  0
    1.9134    0.7925    0.0000 C   0  0  0  0  0  0  0  0  0  0  0  0
    1.1009    0.9358    0.0000 H   0  0  0  0  0  0  0  0  0  0  0  0
    2.4437    1.4245    0.0000 C   0  0  0  0  0  0  0  0  0  0  0  0
    2.1615    2.1998    0.0000 C   0  0  0  0  0  0  0  0  0  0  0  0
    2.6918    2.8317    0.0000 C   0  0  0  0  0  0  0  0  0  0  0  0
    3.5043    2.6885    0.0000 C   0  0  0  0  0  0  0  0  0  0  0  0
    3.7865    1.9132    0.0000 C   0  0  0  0  0  0  0  0  0  0  0  0
    4.5989    1.7700    0.0000 H   0  0  0  0  0  0  0  0  0  0  0  0
    3.2562    1.2813    0.0000 C   0  0  0  0  0  0  0  0  0  0  0  0
    4.0346    3.3205    0.0000 H   0  0  0  0  0  0  0  0  0  0  0  0
    2.4097    3.6070    0.0000 H   0  0  0  0  0  0  0  0  0  0  0  0
    1.3491    2.3430    0.0000 H   0  0  0  0  0  0  0  0  0  0  0  0
    4.8811    0.9947    0.0000 H   0  0  0  0  0  0  0  0  0  0  0  0
    3.3882   -1.4570    0.0000 C   0  0  0  0  0  0  0  0  0  0  0  0
    4.1027   -1.8695    0.0000 H   0  0  0  0  0  0  0  0  0  0  0  0
    3.6704   -0.6817    0.0000 H   0  0  0  0  0  0  0  0  0  0  0  0
    3.3882   -2.2820    0.0000 C   0  0  0  0  0  0  0  0  0  0  0  0
    2.7089   -2.7502    0.0000 H   0  0  0  0  0  0  0  0  0  0  0  0
    3.4211   -3.1063    0.0000 H   0  0  0  0  0  0  0  0  0  0  0  0
    4.1027   -2.6945    0.0000 O   0  0  0  0  0  0  0  0  0  0  0  0
    4.8171   -2.2820    0.0000 C   0  0  0  0  0  0  0  0  0  0  0  0
    5.5316   -2.6945    0.0000 C   0  0  0  0  0  0  0  0  0  0  0  0
    6.2461   -2.2820    0.0000 C   0  0  0  0  0  0  0  0  0  0  0  0
    6.2461   -1.4570    0.0000 C   0  0  0  0  0  0  0  0  0  0  0  0
    6.9605   -1.0445    0.0000 Cl  0  0  0  0  0  0  0  0  0  0  0  0
    5.5316   -1.0445    0.0000 C   0  0  0  0  0  0  0  0  0  0  0  0
    6.2074   -0.5713    0.0000 H   0  0  0  0  0  0  0  0  0  0  0  0
    4.8171   -1.4570    0.0000 C   0  0  0  0  0  0  0  0  0  0  0  0
    6.9605   -2.6945    0.0000 H   0  0  0  0  0  0  0  0  0  0  0  0
    5.5316   -3.5195    0.0000 H   0  0  0  0  0  0  0  0  0  0  0  0
    4.3422   -0.1160    0.0000 H   0  0  0  0  0  0  0  0  0  0  0  0
    3.2902   -1.1877    0.0000 H   0  0  0  0  0  0  0  0  0  0  0  0
    1.9538   -0.7312    0.0000 H   0  0  0  0  0  0  0  0  0  0  0  0
    2.1166   -2.0728    0.0000 H   0  0  0  0  0  0  0  0  0  0  0  0
    2.8661   -2.0589    0.0000 H   0  0  0  0  0  0  0  0  0  0  0  0
    1.3831   -2.2495    0.0000 C   0  0  0  0  0  0  0  0  0  0  0  0
    1.5514   -3.0572    0.0000 H   0  0  0  0  0  0  0  0  0  0  0  0
    0.5706   -2.3928    0.0000 C   0  0  0  0  0  0  0  0  0  0  0  0
    0.2885   -3.1680    0.0000 H   0  0  0  0  0  0  0  0  0  0  0  0
    0.0403   -1.7608    0.0000 C   0  0  0  0  0  0  0  0  0  0  0  0
   -0.7721   -1.9040    0.0000 F   0  0  0  0  0  0  0  0  0  0  0  0
   -0.4559    1.0537    0.0000 H   0  0  0  0  0  0  0  0  0  0  0  0
   -1.6938    0.9476    0.0000 H   0  0  0  0  0  0  0  0  0  0  0  0
   -2.3630   -0.0081    0.0000 H   0  0  0  0  0  0  0  0  0  0  0  0
   -1.4073   -0.6773    0.0000 H   0  0  0  0  0  0  0  0  0  0  0  0
  1  2  1  0  0  0  0
  2  3  1  0  0  0  0
  3  4  2  0  0  0  0
  3  5  2  0  0  0  0
  3  6  1  0  0  0  0
  6  7  2  0  0  0  0
  7  8  1  0  0  0  0
  7  9  1  0  0  0  0
  9 10  1  0  0  0  0
 10 11  1  0  0  0  0
 11 12  1  0  0  0  0
 12 13  1  0  0  0  0
 13 14  1  0  0  0  0
 14 15  2  0  0  0  0
 14 16  1  0  0  0  0
 16 17  1  0  0  0  0
 17 18  2  0  0  0  0
 18 19  1  0  0  0  0
 18 20  1  0  0  0  0
 20 21  2  0  0  0  0
 21 22  1  0  0  0  0
 21 23  1  0  0  0  0
 23 24  2  0  0  0  0
 24 25  1  0  0  0  0
 25 26  2  0  0  0  0
 26 27  1  0  0  0  0
 27 28  1  0  0  0  0
 27 29  2  0  0  0  0
 17 29  1  0  0  0  0
 23 29  1  0  0  0  0
 26 30  1  0  0  0  0
 25 31  1  0  0  0  0
 24 32  1  0  0  0  0
 16 33  1  0  0  0  0
 13 34  1  0  0  0  0
 34 35  1  0  0  0  0
 34 36  1  0  0  0  0
 34 37  1  0  0  0  0
 37 38  1  0  0  0  0
 37 39  1  0  0  0  0
 37 40  1  0  0  0  0
 40 41  1  0  0  0  0
 41 42  2  0  0  0  0
 42 43  1  0  0  0  0
 43 44  2  0  0  0  0
 44 45  1  0  0  0  0
 44 46  1  0  0  0  0
 46 47  1  0  0  0  0
 46 48  2  0  0  0  0
 13 48  1  0  0  0  0
 41 48  1  0  0  0  0
 43 49  1  0  0  0  0
 42 50  1  0  0  0  0
 12 51  1  0  0  0  0
 12 52  1  0  0  0  0
 11 53  1  0  0  0  0
 10 54  1  0  0  0  0
 10 55  1  0  0  0  0
  9 56  2  0  0  0  0
 56 57  1  0  0  0  0
 56 58  1  0  0  0  0
 58 59  1  0  0  0  0
 58 60  2  0  0  0  0
  6 60  1  0  0  0  0
 60 61  1  0  0  0  0
  2 62  1  0  0  0  0
  1 63  1  0  0  0  0
  1 64  1  0  0  0  0
  1 65  1  0  0  0  0
M  END
> <Potency>
1.72928684187168

> <pIC50>
5.76213296305357

> <Outcome>
Active

> <is_active>
1

$$$$

  Mrv1921 08232120312D          

 56 59  0  0  0  0            999 V2000
    1.5492   -3.4962    0.0000 C   0  0  0  0  0  0  0  0  0  0  0  0
    2.2636   -3.9087    0.0000 N   0  0  0  0  0  0  0  0  0  0  0  0
    2.2636   -4.7337    0.0000 C   0  0  0  0  0  0  0  0  0  0  0  0
    1.4386   -4.7337    0.0000 H   0  0  0  0  0  0  0  0  0  0  0  0
    2.2636   -5.5587    0.0000 H   0  0  0  0  0  0  0  0  0  0  0  0
    3.0886   -4.7337    0.0000 H   0  0  0  0  0  0  0  0  0  0  0  0
    2.9781   -3.4962    0.0000 C   0  0  0  0  0  0  0  0  0  0  0  0
    2.9781   -2.6712    0.0000 O   0  0  0  0  0  0  0  0  0  0  0  0
    3.6926   -3.9087    0.0000 C   0  0  0  0  0  0  0  0  0  0  0  0
    4.4070   -3.4962    0.0000 O   0  0  0  0  0  0  0  0  0  0  0  0
    5.1215   -3.9087    0.0000 C   0  0  0  0  0  0  0  0  0  0  0  0
    5.1215   -4.7337    0.0000 C   0  0  0  0  0  0  0  0  0  0  0  0
    5.9340   -4.5904    0.0000 C   0  0  0  0  0  0  0  0  0  0  0  0
    6.4643   -5.2224    0.0000 O   0  0  0  0  0  0  0  0  0  0  0  0
    6.2161   -3.8152    0.0000 N   0  0  0  0  0  0  0  0  0  0  0  0
    5.6858   -3.1832    0.0000 C   0  0  0  0  0  0  0  0  0  0  0  0
    4.8734   -3.3265    0.0000 C   0  0  0  0  0  0  0  0  0  0  0  0
    5.1555   -2.5512    0.0000 H   0  0  0  0  0  0  0  0  0  0  0  0
    4.3431   -2.6945    0.0000 N   0  0  0  0  0  0  0  0  0  0  0  0
    4.6252   -1.9192    0.0000 C   0  0  0  0  0  0  0  0  0  0  0  0
    4.0949   -1.2873    0.0000 H   0  0  0  0  0  0  0  0  0  0  0  0
    5.4377   -1.7760    0.0000 C   0  0  0  0  0  0  0  0  0  0  0  0
    5.7199   -1.0007    0.0000 C   0  0  0  0  0  0  0  0  0  0  0  0
    6.5323   -0.8575    0.0000 C   0  0  0  0  0  0  0  0  0  0  0  0
    7.0626   -1.4895    0.0000 C   0  0  0  0  0  0  0  0  0  0  0  0
    6.7805   -2.2647    0.0000 C   0  0  0  0  0  0  0  0  0  0  0  0
    7.3108   -2.8967    0.0000 H   0  0  0  0  0  0  0  0  0  0  0  0
    5.9680   -2.4080    0.0000 C   0  0  0  0  0  0  0  0  0  0  0  0
    7.8751   -1.3462    0.0000 H   0  0  0  0  0  0  0  0  0  0  0  0
    6.8145   -0.0822    0.0000 H   0  0  0  0  0  0  0  0  0  0  0  0
    5.1896   -0.3687    0.0000 H   0  0  0  0  0  0  0  0  0  0  0  0
    7.0286   -3.6719    0.0000 H   0  0  0  0  0  0  0  0  0  0  0  0
    4.3090   -4.5904    0.0000 C   0  0  0  0  0  0  0  0  0  0  0  0
    4.5912   -5.3657    0.0000 H   0  0  0  0  0  0  0  0  0  0  0  0
    5.0235   -4.1779    0.0000 H   0  0  0  0  0  0  0  0  0  0  0  0
    3.7787   -5.2224    0.0000 C   0  0  0  0  0  0  0  0  0  0  0  0
    2.9753   -5.4098    0.0000 H   0  0  0  0  0  0  0  0  0  0  0  0
    3.3859   -5.9479    0.0000 H   0  0  0  0  0  0  0  0  0  0  0  0
    4.0609   -5.9977    0.0000 O   0  0  0  0  0  0  0  0  0  0  0  0
    4.8734   -6.1409    0.0000 C   0  0  0  0  0  0  0  0  0  0  0  0
    5.1555   -6.9162    0.0000 C   0  0  0  0  0  0  0  0  0  0  0  0
    5.9680   -7.0594    0.0000 C   0  0  0  0  0  0  0  0  0  0  0  0
    6.4983   -6.4275    0.0000 C   0  0  0  0  0  0  0  0  0  0  0  0
    7.3108   -6.5707    0.0000 Cl  0  0  0  0  0  0  0  0  0  0  0  0
    6.2161   -5.6522    0.0000 C   0  0  0  0  0  0  0  0  0  0  0  0
    7.0380   -5.7241    0.0000 H   0  0  0  0  0  0  0  0  0  0  0  0
    5.4037   -5.5090    0.0000 C   0  0  0  0  0  0  0  0  0  0  0  0
    6.2502   -7.8347    0.0000 H   0  0  0  0  0  0  0  0  0  0  0  0
    4.6252   -7.5482    0.0000 H   0  0  0  0  0  0  0  0  0  0  0  0
    5.9018   -4.1765    0.0000 H   0  0  0  0  0  0  0  0  0  0  0  0
    4.4070   -4.3212    0.0000 H   0  0  0  0  0  0  0  0  0  0  0  0
    2.9391   -4.2448    0.0000 H   0  0  0  0  0  0  0  0  0  0  0  0
    3.5222   -4.7159    0.0000 H   0  0  0  0  0  0  0  0  0  0  0  0
    1.9617   -2.7817    0.0000 H   0  0  0  0  0  0  0  0  0  0  0  0
    0.8347   -3.0837    0.0000 H   0  0  0  0  0  0  0  0  0  0  0  0
    1.1367   -4.2107    0.0000 H   0  0  0  0  0  0  0  0  0  0  0  0
  1  2  1  0  0  0  0
  2  3  1  0  0  0  0
  3  4  1  0  0  0  0
  3  5  1  0  0  0  0
  3  6  1  0  0  0  0
  2  7  1  0  0  0  0
  7  8  2  0  0  0  0
  7  9  1  0  0  0  0
  9 10  1  0  0  0  0
 10 11  1  0  0  0  0
 11 12  1  0  0  0  0
 12 13  1  0  0  0  0
 13 14  2  0  0  0  0
 13 15  1  0  0  0  0
 15 16  1  0  0  0  0
 16 17  2  0  0  0  0
 17 18  1  0  0  0  0
 17 19  1  0  0  0  0
 19 20  2  0  0  0  0
 20 21  1  0  0  0  0
 20 22  1  0  0  0  0
 22 23  2  0  0  0  0
 23 24  1  0  0  0  0
 24 25  2  0  0  0  0
 25 26  1  0  0  0  0
 26 27  1  0  0  0  0
 26 28  2  0  0  0  0
 16 28  1  0  0  0  0
 22 28  1  0  0  0  0
 25 29  1  0  0  0  0
 24 30  1  0  0  0  0
 23 31  1  0  0  0  0
 15 32  1  0  0  0  0
 12 33  1  0  0  0  0
 33 34  1  0  0  0  0
 33 35  1  0  0  0  0
 33 36  1  0  0  0  0
 36 37  1  0  0  0  0
 36 38  1  0  0  0  0
 36 39  1  0  0  0  0
 39 40  1  0  0  0  0
 40 41  2  0  0  0  0
 41 42  1  0  0  0  0
 42 43  2  0  0  0  0
 43 44  1  0  0  0  0
 43 45  1  0  0  0  0
 45 46  1  0  0  0  0
 45 47  2  0  0  0  0
 12 47  1  0  0  0  0
 40 47  1  0  0  0  0
 42 48  1  0  0  0  0
 41 49  1  0  0  0  0
 11 50  1  0  0  0  0
 11 51  1  0  0  0  0
  9 52  1  0  0  0  0
  9 53  1  0  0  0  0
  1 54  1  0  0  0  0
  1 55  1  0  0  0  0
  1 56  1  0  0  0  0
M  END
> <Potency>
0.651546346548054

> <pIC50>
6.186054686115368

> <Outcome>
Active

> <is_active>
1

$$$$

  Mrv1921 08232120312D          

 55 58  0  0  0  0            999 V2000
    2.9781   -3.4962    0.0000 C   0  0  0  0  0  0  0  0  0  0  0  0
    3.7906   -3.6395    0.0000 N   0  0  0  0  0  0  0  0  0  0  0  0
    4.0727   -4.4147    0.0000 C   0  0  0  0  0  0  0  0  0  0  0  0
    3.2795   -4.1880    0.0000 H   0  0  0  0  0  0  0  0  0  0  0  0
    3.4236   -4.9238    0.0000 H   0  0  0  0  0  0  0  0  0  0  0  0
    4.1038   -5.2391    0.0000 H   0  0  0  0  0  0  0  0  0  0  0  0
    4.3209   -3.0075    0.0000 S   0  0  0  0  0  0  0  0  0  0  0  0
    4.9528   -3.5378    0.0000 O   0  0  0  0  0  0  0  0  0  0  0  0
    3.6889   -2.4772    0.0000 O   0  0  0  0  0  0  0  0  0  0  0  0
    4.8512   -2.3755    0.0000 N   0  0  0  0  0  0  0  0  0  0  0  0
    4.5690   -1.6002    0.0000 C   0  0  0  0  0  0  0  0  0  0  0  0
    5.0993   -0.9683    0.0000 C   0  0  0  0  0  0  0  0  0  0  0  0
    5.6296   -1.6002    0.0000 C   0  0  0  0  0  0  0  0  0  0  0  0
    6.4421   -1.4570    0.0000 O   0  0  0  0  0  0  0  0  0  0  0  0
    5.3474   -2.3755    0.0000 N   0  0  0  0  0  0  0  0  0  0  0  0
    5.8777   -3.0075    0.0000 C   0  0  0  0  0  0  0  0  0  0  0  0
    6.6902   -2.8642    0.0000 C   0  0  0  0  0  0  0  0  0  0  0  0
    6.9724   -2.0890    0.0000 H   0  0  0  0  0  0  0  0  0  0  0  0
    7.2205   -3.4962    0.0000 N   0  0  0  0  0  0  0  0  0  0  0  0
    6.9383   -4.2715    0.0000 C   0  0  0  0  0  0  0  0  0  0  0  0
    7.4686   -4.9034    0.0000 H   0  0  0  0  0  0  0  0  0  0  0  0
    6.1259   -4.4147    0.0000 C   0  0  0  0  0  0  0  0  0  0  0  0
    5.8437   -5.1900    0.0000 C   0  0  0  0  0  0  0  0  0  0  0  0
    5.0312   -5.3332    0.0000 C   0  0  0  0  0  0  0  0  0  0  0  0
    4.5009   -4.7012    0.0000 C   0  0  0  0  0  0  0  0  0  0  0  0
    4.7831   -3.9260    0.0000 C   0  0  0  0  0  0  0  0  0  0  0  0
    4.1469   -3.4007    0.0000 H   0  0  0  0  0  0  0  0  0  0  0  0
    5.5956   -3.7827    0.0000 C   0  0  0  0  0  0  0  0  0  0  0  0
    5.3134   -4.5580    0.0000 H   0  0  0  0  0  0  0  0  0  0  0  0
    5.0615   -6.1577    0.0000 H   0  0  0  0  0  0  0  0  0  0  0  0
    6.3740   -5.8219    0.0000 H   0  0  0  0  0  0  0  0  0  0  0  0
    4.8742   -1.6997    0.0000 H   0  0  0  0  0  0  0  0  0  0  0  0
    4.3848   -0.5558    0.0000 C   0  0  0  0  0  0  0  0  0  0  0  0
    3.6118   -0.2677    0.0000 H   0  0  0  0  0  0  0  0  0  0  0  0
    5.0993   -0.1433    0.0000 H   0  0  0  0  0  0  0  0  0  0  0  0
    4.3848    0.2692    0.0000 C   0  0  0  0  0  0  0  0  0  0  0  0
    4.2153    1.0766    0.0000 H   0  0  0  0  0  0  0  0  0  0  0  0
    3.7266    0.7666    0.0000 H   0  0  0  0  0  0  0  0  0  0  0  0
    5.0993    0.6817    0.0000 O   0  0  0  0  0  0  0  0  0  0  0  0
    5.8138    0.2692    0.0000 C   0  0  0  0  0  0  0  0  0  0  0  0
    6.5282    0.6817    0.0000 C   0  0  0  0  0  0  0  0  0  0  0  0
    7.2427    0.2692    0.0000 C   0  0  0  0  0  0  0  0  0  0  0  0
    7.2427   -0.5558    0.0000 C   0  0  0  0  0  0  0  0  0  0  0  0
    7.9572   -0.9683    0.0000 Cl  0  0  0  0  0  0  0  0  0  0  0  0
    6.5282   -0.9683    0.0000 C   0  0  0  0  0  0  0  0  0  0  0  0
    7.2040   -1.4415    0.0000 H   0  0  0  0  0  0  0  0  0  0  0  0
    5.8138   -0.5558    0.0000 C   0  0  0  0  0  0  0  0  0  0  0  0
    7.9572    0.6817    0.0000 H   0  0  0  0  0  0  0  0  0  0  0  0
    6.5282    1.5067    0.0000 H   0  0  0  0  0  0  0  0  0  0  0  0
    3.9072   -1.1076    0.0000 H   0  0  0  0  0  0  0  0  0  0  0  0
    3.7787   -1.8369    0.0000 H   0  0  0  0  0  0  0  0  0  0  0  0
    5.1998   -3.1232    0.0000 H   0  0  0  0  0  0  0  0  0  0  0  0
    3.1214   -2.6837    0.0000 H   0  0  0  0  0  0  0  0  0  0  0  0
    2.1656   -3.3529    0.0000 H   0  0  0  0  0  0  0  0  0  0  0  0
    2.8348   -4.3087    0.0000 H   0  0  0  0  0  0  0  0  0  0  0  0
  1  2  1  0  0  0  0
  2  3  1  0  0  0  0
  3  4  1  0  0  0  0
  3  5  1  0  0  0  0
  3  6  1  0  0  0  0
  2  7  1  0  0  0  0
  7  8  2  0  0  0  0
  7  9  2  0  0  0  0
  7 10  1  0  0  0  0
 10 11  1  0  0  0  0
 11 12  1  0  0  0  0
 12 13  1  0  0  0  0
 13 14  2  0  0  0  0
 13 15  1  0  0  0  0
 15 16  1  0  0  0  0
 16 17  2  0  0  0  0
 17 18  1  0  0  0  0
 17 19  1  0  0  0  0
 19 20  2  0  0  0  0
 20 21  1  0  0  0  0
 20 22  1  0  0  0  0
 22 23  2  0  0  0  0
 23 24  1  0  0  0  0
 24 25  2  0  0  0  0
 25 26  1  0  0  0  0
 26 27  1  0  0  0  0
 26 28  2  0  0  0  0
 16 28  1  0  0  0  0
 22 28  1  0  0  0  0
 25 29  1  0  0  0  0
 24 30  1  0  0  0  0
 23 31  1  0  0  0  0
 15 32  1  0  0  0  0
 12 33  1  0  0  0  0
 33 34  1  0  0  0  0
 33 35  1  0  0  0  0
 33 36  1  0  0  0  0
 36 37  1  0  0  0  0
 36 38  1  0  0  0  0
 36 39  1  0  0  0  0
 39 40  1  0  0  0  0
 40 41  2  0  0  0  0
 41 42  1  0  0  0  0
 42 43  2  0  0  0  0
 43 44  1  0  0  0  0
 43 45  1  0  0  0  0
 45 46  1  0  0  0  0
 45 47  2  0  0  0  0
 12 47  1  0  0  0  0
 40 47  1  0  0  0  0
 42 48  1  0  0  0  0
 41 49  1  0  0  0  0
 11 50  1  0  0  0  0
 11 51  1  0  0  0  0
 10 52  1  0  0  0  0
  1 53  1  0  0  0  0
  1 54  1  0  0  0  0
  1 55  1  0  0  0  0
M  END
> <Potency>
2.72507532764904

> <pIC50>
5.564621488275354

> <Outcome>
Active

> <is_active>
1

$$$$

  Mrv1921 08232120312D          

 34 36  0  0  0  0            999 V2000
    0.8838   -2.1500    0.0000 C   0  0  0  0  0  0  0  0  0  0  0  0
    1.1387   -1.3654    0.0000 N   0  0  0  0  0  0  0  0  0  0  0  0
    0.6538   -0.6979    0.0000 N   0  0  0  0  0  0  0  0  0  0  0  0
    1.1387   -0.0305    0.0000 C   0  0  0  0  0  0  0  0  0  0  0  0
    0.8838    0.7541    0.0000 H   0  0  0  0  0  0  0  0  0  0  0  0
    1.9233   -0.2854    0.0000 C   0  0  0  0  0  0  0  0  0  0  0  0
    2.6378    0.1271    0.0000 C   0  0  0  0  0  0  0  0  0  0  0  0
    3.3523   -0.2854    0.0000 N   0  0  0  0  0  0  0  0  0  0  0  0
    3.3523   -1.1104    0.0000 C   0  0  0  0  0  0  0  0  0  0  0  0
    2.6378   -1.5229    0.0000 C   0  0  0  0  0  0  0  0  0  0  0  0
    2.6378   -2.3479    0.0000 N   0  0  0  0  0  0  0  0  0  0  0  0
    3.3523   -2.7604    0.0000 C   0  0  0  0  0  0  0  0  0  0  0  0
    4.0668   -2.3479    0.0000 O   0  0  0  0  0  0  0  0  0  0  0  0
    3.3523   -3.5854    0.0000 C   0  0  0  0  0  0  0  0  0  0  0  0
    2.6378   -3.9979    0.0000 C   0  0  0  0  0  0  0  0  0  0  0  0
    2.6378   -4.8229    0.0000 C   0  0  0  0  0  0  0  0  0  0  0  0
    3.3523   -5.2354    0.0000 H   0  0  0  0  0  0  0  0  0  0  0  0
    1.9233   -5.2354    0.0000 C   0  0  0  0  0  0  0  0  0  0  0  0
    1.9233   -6.0604    0.0000 H   0  0  0  0  0  0  0  0  0  0  0  0
    1.2089   -4.8229    0.0000 C   0  0  0  0  0  0  0  0  0  0  0  0
    0.4944   -5.2354    0.0000 H   0  0  0  0  0  0  0  0  0  0  0  0
    1.2089   -3.9979    0.0000 C   0  0  0  0  0  0  0  0  0  0  0  0
    0.4944   -3.5854    0.0000 Cl  0  0  0  0  0  0  0  0  0  0  0  0
    1.9233   -3.5854    0.0000 C   0  0  0  0  0  0  0  0  0  0  0  0
    2.6378   -3.1729    0.0000 H   0  0  0  0  0  0  0  0  0  0  0  0
    3.8056   -4.2747    0.0000 H   0  0  0  0  0  0  0  0  0  0  0  0
    4.1759   -3.6334    0.0000 H   0  0  0  0  0  0  0  0  0  0  0  0
    1.9233   -2.7604    0.0000 H   0  0  0  0  0  0  0  0  0  0  0  0
    1.9233   -1.1104    0.0000 C   0  0  0  0  0  0  0  0  0  0  0  0
    4.0668   -1.5229    0.0000 H   0  0  0  0  0  0  0  0  0  0  0  0
    2.6378    0.9521    0.0000 H   0  0  0  0  0  0  0  0  0  0  0  0
    0.0992   -1.8951    0.0000 H   0  0  0  0  0  0  0  0  0  0  0  0
    0.6288   -2.9346    0.0000 H   0  0  0  0  0  0  0  0  0  0  0  0
    1.6684   -2.4049    0.0000 H   0  0  0  0  0  0  0  0  0  0  0  0
  1  2  1  0  0  0  0
  2  3  1  0  0  0  0
  3  4  2  0  0  0  0
  4  5  1  0  0  0  0
  4  6  1  0  0  0  0
  6  7  1  0  0  0  0
  7  8  2  0  0  0  0
  8  9  1  0  0  0  0
  9 10  2  0  0  0  0
 10 11  1  0  0  0  0
 11 12  1  0  0  0  0
 12 13  2  0  0  0  0
 12 14  1  0  0  0  0
 14 15  1  0  0  0  0
 15 16  2  0  0  0  0
 16 17  1  0  0  0  0
 16 18  1  0  0  0  0
 18 19  1  0  0  0  0
 18 20  2  0  0  0  0
 20 21  1  0  0  0  0
 20 22  1  0  0  0  0
 22 23  1  0  0  0  0
 22 24  2  0  0  0  0
 15 24  1  0  0  0  0
 24 25  1  0  0  0  0
 14 26  1  0  0  0  0
 14 27  1  0  0  0  0
 11 28  1  0  0  0  0
 10 29  1  0  0  0  0
  2 29  1  0  0  0  0
  6 29  2  0  0  0  0
  9 30  1  0  0  0  0
  7 31  1  0  0  0  0
  1 32  1  0  0  0  0
  1 33  1  0  0  0  0
  1 34  1  0  0  0  0
M  END
> <Potency>
1.49602478359548

> <pIC50>
5.825061211759255

> <Outcome>
Active

> <is_active>
1

$$$$

  Mrv1921 08232120312D          

 69 72  0  0  0  0            999 V2000
    3.1279   -5.5282    0.0000 C   0  0  0  0  0  0  0  0  0  0  0  0
    3.9381   -5.3723    0.0000 O   0  0  0  0  0  0  0  0  0  0  0  0
    4.4782   -5.9959    0.0000 C   0  0  0  0  0  0  0  0  0  0  0  0
    4.2081   -6.7755    0.0000 N   0  0  0  0  0  0  0  0  0  0  0  0
    4.7482   -7.3991    0.0000 C   0  0  0  0  0  0  0  0  0  0  0  0
    4.4782   -8.1787    0.0000 H   0  0  0  0  0  0  0  0  0  0  0  0
    5.5583   -7.2432    0.0000 N   0  0  0  0  0  0  0  0  0  0  0  0
    5.8284   -6.4637    0.0000 C   0  0  0  0  0  0  0  0  0  0  0  0
    6.0984   -5.6841    0.0000 H   0  0  0  0  0  0  0  0  0  0  0  0
    5.2883   -5.8400    0.0000 C   0  0  0  0  0  0  0  0  0  0  0  0
    5.5583   -5.0605    0.0000 C   0  0  0  0  0  0  0  0  0  0  0  0
    5.0182   -4.4368    0.0000 C   0  0  0  0  0  0  0  0  0  0  0  0
    5.2883   -3.6573    0.0000 O   0  0  0  0  0  0  0  0  0  0  0  0
    4.2081   -4.5927    0.0000 N   0  0  0  0  0  0  0  0  0  0  0  0
    3.6680   -3.9691    0.0000 C   0  0  0  0  0  0  0  0  0  0  0  0
    2.8579   -4.1250    0.0000 C   0  0  0  0  0  0  0  0  0  0  0  0
    2.3178   -3.5014    0.0000 C   0  0  0  0  0  0  0  0  0  0  0  0
    1.5077   -3.6573    0.0000 C   0  0  0  0  0  0  0  0  0  0  0  0
    1.2376   -4.4368    0.0000 H   0  0  0  0  0  0  0  0  0  0  0  0
    0.9676   -3.0336    0.0000 C   0  0  0  0  0  0  0  0  0  0  0  0
    0.1574   -3.1895    0.0000 H   0  0  0  0  0  0  0  0  0  0  0  0
    1.2376   -2.2541    0.0000 C   0  0  0  0  0  0  0  0  0  0  0  0
    0.6975   -1.6304    0.0000 H   0  0  0  0  0  0  0  0  0  0  0  0
    2.0477   -2.0982    0.0000 C   0  0  0  0  0  0  0  0  0  0  0  0
    2.3178   -1.3186    0.0000 F   0  0  0  0  0  0  0  0  0  0  0  0
    2.5878   -2.7218    0.0000 C   0  0  0  0  0  0  0  0  0  0  0  0
    3.2115   -2.1817    0.0000 H   0  0  0  0  0  0  0  0  0  0  0  0
    2.1157   -4.4853    0.0000 H   0  0  0  0  0  0  0  0  0  0  0  0
    3.1279   -3.3454    0.0000 H   0  0  0  0  0  0  0  0  0  0  0  0
    4.2592   -3.3937    0.0000 H   0  0  0  0  0  0  0  0  0  0  0  0
    3.5595   -3.1513    0.0000 H   0  0  0  0  0  0  0  0  0  0  0  0
    3.3980   -4.7486    0.0000 H   0  0  0  0  0  0  0  0  0  0  0  0
    6.3685   -4.9046    0.0000 N   0  0  0  0  0  0  0  0  0  0  0  0
    6.6385   -4.1250    0.0000 C   0  0  0  0  0  0  0  0  0  0  0  0
    6.0984   -3.5014    0.0000 O   0  0  0  0  0  0  0  0  0  0  0  0
    7.4486   -3.9691    0.0000 C   0  0  0  0  0  0  0  0  0  0  0  0
    7.7987   -3.2220    0.0000 C   0  0  0  0  0  0  0  0  0  0  0  0
    7.4001   -2.4997    0.0000 H   0  0  0  0  0  0  0  0  0  0  0  0
    8.6174   -3.3241    0.0000 O   0  0  0  0  0  0  0  0  0  0  0  0
    8.7733   -4.1342    0.0000 C   0  0  0  0  0  0  0  0  0  0  0  0
    9.5203   -4.4843    0.0000 H   0  0  0  0  0  0  0  0  0  0  0  0
    8.0510   -4.5329    0.0000 N   0  0  0  0  0  0  0  0  0  0  0  0
    6.9086   -5.5282    0.0000 C   0  0  0  0  0  0  0  0  0  0  0  0
    7.7187   -5.3723    0.0000 C   0  0  0  0  0  0  0  0  0  0  0  0
    7.1923   -4.7371    0.0000 H   0  0  0  0  0  0  0  0  0  0  0  0
    8.2588   -5.9959    0.0000 C   0  0  0  0  0  0  0  0  0  0  0  0
    9.0689   -5.8400    0.0000 H   0  0  0  0  0  0  0  0  0  0  0  0
    7.9887   -6.7755    0.0000 C   0  0  0  0  0  0  0  0  0  0  0  0
    8.5288   -7.3991    0.0000 C   0  0  0  0  0  0  0  0  0  0  0  0
    9.0689   -8.0228    0.0000 C   0  0  0  0  0  0  0  0  0  0  0  0
    8.4453   -8.5628    0.0000 H   0  0  0  0  0  0  0  0  0  0  0  0
    9.6090   -8.6464    0.0000 H   0  0  0  0  0  0  0  0  0  0  0  0
    9.6926   -7.4827    0.0000 H   0  0  0  0  0  0  0  0  0  0  0  0
    7.9052   -7.9392    0.0000 C   0  0  0  0  0  0  0  0  0  0  0  0
    7.6449   -7.1564    0.0000 H   0  0  0  0  0  0  0  0  0  0  0  0
    7.0823   -7.8801    0.0000 H   0  0  0  0  0  0  0  0  0  0  0  0
    7.5357   -8.6768    0.0000 H   0  0  0  0  0  0  0  0  0  0  0  0
    9.1525   -6.8590    0.0000 C   0  0  0  0  0  0  0  0  0  0  0  0
    9.9353   -6.5987    0.0000 H   0  0  0  0  0  0  0  0  0  0  0  0
    9.2115   -6.0361    0.0000 H   0  0  0  0  0  0  0  0  0  0  0  0
    8.4148   -6.4895    0.0000 H   0  0  0  0  0  0  0  0  0  0  0  0
    7.1786   -6.9314    0.0000 C   0  0  0  0  0  0  0  0  0  0  0  0
    6.3920   -7.1801    0.0000 H   0  0  0  0  0  0  0  0  0  0  0  0
    6.6385   -6.3077    0.0000 C   0  0  0  0  0  0  0  0  0  0  0  0
    7.4486   -6.1518    0.0000 H   0  0  0  0  0  0  0  0  0  0  0  0
    4.7482   -5.2164    0.0000 H   0  0  0  0  0  0  0  0  0  0  0  0
    2.9720   -4.7181    0.0000 H   0  0  0  0  0  0  0  0  0  0  0  0
    2.3178   -5.6841    0.0000 H   0  0  0  0  0  0  0  0  0  0  0  0
    3.2838   -6.3383    0.0000 H   0  0  0  0  0  0  0  0  0  0  0  0
  1  2  1  0  0  0  0
  2  3  1  0  0  0  0
  3  4  1  0  0  0  0
  4  5  2  0  0  0  0
  5  6  1  0  0  0  0
  5  7  1  0  0  0  0
  7  8  2  0  0  0  0
  8  9  1  0  0  0  0
  8 10  1  0  0  0  0
  3 10  2  0  0  0  0
 10 11  1  0  0  0  0
 11 12  1  0  0  0  0
 12 13  2  0  0  0  0
 12 14  1  0  0  0  0
 14 15  1  0  0  0  0
 15 16  1  0  0  0  0
 16 17  1  0  0  0  0
 17 18  2  0  0  0  0
 18 19  1  0  0  0  0
 18 20  1  0  0  0  0
 20 21  1  0  0  0  0
 20 22  2  0  0  0  0
 22 23  1  0  0  0  0
 22 24  1  0  0  0  0
 24 25  1  0  0  0  0
 24 26  2  0  0  0  0
 17 26  1  0  0  0  0
 26 27  1  0  0  0  0
 16 28  1  0  0  0  0
 16 29  1  0  0  0  0
 15 30  1  0  0  0  0
 15 31  1  0  0  0  0
 14 32  1  0  0  0  0
 11 33  1  0  0  0  0
 33 34  1  0  0  0  0
 34 35  2  0  0  0  0
 34 36  1  0  0  0  0
 36 37  2  0  0  0  0
 37 38  1  0  0  0  0
 37 39  1  0  0  0  0
 39 40  1  0  0  0  0
 40 41  1  0  0  0  0
 40 42  2  0  0  0  0
 36 42  1  0  0  0  0
 33 43  1  0  0  0  0
 43 44  2  0  0  0  0
 44 45  1  0  0  0  0
 44 46  1  0  0  0  0
 46 47  1  0  0  0  0
 46 48  2  0  0  0  0
 48 49  1  0  0  0  0
 49 50  1  0  0  0  0
 50 51  1  0  0  0  0
 50 52  1  0  0  0  0
 50 53  1  0  0  0  0
 49 54  1  0  0  0  0
 54 55  1  0  0  0  0
 54 56  1  0  0  0  0
 54 57  1  0  0  0  0
 49 58  1  0  0  0  0
 58 59  1  0  0  0  0
 58 60  1  0  0  0  0
 58 61  1  0  0  0  0
 48 62  1  0  0  0  0
 62 63  1  0  0  0  0
 62 64  2  0  0  0  0
 43 64  1  0  0  0  0
 64 65  1  0  0  0  0
 11 66  1  0  0  0  0
  1 67  1  0  0  0  0
  1 68  1  0  0  0  0
  1 69  1  0  0  0  0
M  END
> <Potency>
8.43107840746623

> <pIC50>
5.074116871821547

> <Outcome>
Active

> <is_active>
1

$$$$

  Mrv1921 08232120312D          

 64 67  0  0  0  0            999 V2000
   -1.6500    1.8118    0.0000 C   0  0  0  0  0  0  0  0  0  0  0  0
   -1.2375    1.0974    0.0000 C   0  0  0  0  0  0  0  0  0  0  0  0
   -1.9520    0.6849    0.0000 C   0  0  0  0  0  0  0  0  0  0  0  0
   -2.7699    0.5772    0.0000 H   0  0  0  0  0  0  0  0  0  0  0  0
   -2.1655   -0.1120    0.0000 H   0  0  0  0  0  0  0  0  0  0  0  0
   -1.2975    0.1826    0.0000 H   0  0  0  0  0  0  0  0  0  0  0  0
   -0.5230    1.5099    0.0000 C   0  0  0  0  0  0  0  0  0  0  0  0
   -0.4153    0.6919    0.0000 H   0  0  0  0  0  0  0  0  0  0  0  0
    0.2739    1.2963    0.0000 H   0  0  0  0  0  0  0  0  0  0  0  0
   -0.0208    2.1644    0.0000 H   0  0  0  0  0  0  0  0  0  0  0  0
   -0.8250    0.3829    0.0000 C   0  0  0  0  0  0  0  0  0  0  0  0
    0.0000    0.3829    0.0000 C   0  0  0  0  0  0  0  0  0  0  0  0
    0.8194    0.4785    0.0000 H   0  0  0  0  0  0  0  0  0  0  0  0
    0.4125   -0.3316    0.0000 C   0  0  0  0  0  0  0  0  0  0  0  0
    0.8250   -1.0461    0.0000 H   0  0  0  0  0  0  0  0  0  0  0  0
    0.0000   -1.0461    0.0000 C   0  0  0  0  0  0  0  0  0  0  0  0
    0.4125   -1.7605    0.0000 N   0  0  0  0  0  0  0  0  0  0  0  0
    0.0000   -2.4750    0.0000 C   0  0  0  0  0  0  0  0  0  0  0  0
    0.4125   -3.1895    0.0000 O   0  0  0  0  0  0  0  0  0  0  0  0
   -0.8250   -2.4750    0.0000 C   0  0  0  0  0  0  0  0  0  0  0  0
   -1.3099   -3.1424    0.0000 C   0  0  0  0  0  0  0  0  0  0  0  0
   -1.0550   -3.9271    0.0000 H   0  0  0  0  0  0  0  0  0  0  0  0
   -2.0945   -2.8875    0.0000 O   0  0  0  0  0  0  0  0  0  0  0  0
   -2.0945   -2.0625    0.0000 C   0  0  0  0  0  0  0  0  0  0  0  0
   -2.7620   -1.5776    0.0000 H   0  0  0  0  0  0  0  0  0  0  0  0
   -1.3099   -1.8076    0.0000 N   0  0  0  0  0  0  0  0  0  0  0  0
    1.2375   -1.7605    0.0000 C   0  0  0  0  0  0  0  0  0  0  0  0
    1.6500   -2.4750    0.0000 C   0  0  0  0  0  0  0  0  0  0  0  0
    1.2375   -3.1895    0.0000 O   0  0  0  0  0  0  0  0  0  0  0  0
    2.4750   -2.4750    0.0000 N   0  0  0  0  0  0  0  0  0  0  0  0
    2.8875   -3.1895    0.0000 C   0  0  0  0  0  0  0  0  0  0  0  0
    3.7125   -3.1895    0.0000 C   0  0  0  0  0  0  0  0  0  0  0  0
    4.4018   -2.7361    0.0000 H   0  0  0  0  0  0  0  0  0  0  0  0
    3.7605   -2.3659    0.0000 H   0  0  0  0  0  0  0  0  0  0  0  0
    4.1250   -3.9039    0.0000 C   0  0  0  0  0  0  0  0  0  0  0  0
    4.8622   -4.2742    0.0000 H   0  0  0  0  0  0  0  0  0  0  0  0
    4.8622   -3.5337    0.0000 H   0  0  0  0  0  0  0  0  0  0  0  0
    3.7125   -4.6184    0.0000 O   0  0  0  0  0  0  0  0  0  0  0  0
    2.8875   -4.6184    0.0000 C   0  0  0  0  0  0  0  0  0  0  0  0
    2.1982   -5.0718    0.0000 H   0  0  0  0  0  0  0  0  0  0  0  0
    2.8395   -5.4420    0.0000 H   0  0  0  0  0  0  0  0  0  0  0  0
    2.4750   -3.9039    0.0000 C   0  0  0  0  0  0  0  0  0  0  0  0
    1.6625   -4.0472    0.0000 H   0  0  0  0  0  0  0  0  0  0  0  0
    1.9447   -4.5359    0.0000 H   0  0  0  0  0  0  0  0  0  0  0  0
    2.0625   -3.1895    0.0000 H   0  0  0  0  0  0  0  0  0  0  0  0
    2.8875   -1.7605    0.0000 H   0  0  0  0  0  0  0  0  0  0  0  0
    1.6500   -1.0461    0.0000 C   0  0  0  0  0  0  0  0  0  0  0  0
    1.2375   -0.3316    0.0000 C   0  0  0  0  0  0  0  0  0  0  0  0
    2.0625   -0.3316    0.0000 H   0  0  0  0  0  0  0  0  0  0  0  0
    1.6500    0.3829    0.0000 C   0  0  0  0  0  0  0  0  0  0  0  0
    1.6973    1.2065    0.0000 H   0  0  0  0  0  0  0  0  0  0  0  0
    2.4750    0.3829    0.0000 C   0  0  0  0  0  0  0  0  0  0  0  0
    2.8875    1.0974    0.0000 H   0  0  0  0  0  0  0  0  0  0  0  0
    2.8875   -0.3316    0.0000 N   0  0  0  0  0  0  0  0  0  0  0  0
    2.4750   -1.0461    0.0000 C   0  0  0  0  0  0  0  0  0  0  0  0
    2.0625   -1.7605    0.0000 H   0  0  0  0  0  0  0  0  0  0  0  0
    0.8250   -2.4750    0.0000 H   0  0  0  0  0  0  0  0  0  0  0  0
   -0.8250   -1.0461    0.0000 C   0  0  0  0  0  0  0  0  0  0  0  0
   -1.6498   -1.0281    0.0000 H   0  0  0  0  0  0  0  0  0  0  0  0
   -1.2375   -0.3316    0.0000 C   0  0  0  0  0  0  0  0  0  0  0  0
   -0.4125   -0.3316    0.0000 H   0  0  0  0  0  0  0  0  0  0  0  0
   -0.9355    2.2243    0.0000 H   0  0  0  0  0  0  0  0  0  0  0  0
   -2.0625    2.5263    0.0000 H   0  0  0  0  0  0  0  0  0  0  0  0
   -2.3645    1.3993    0.0000 H   0  0  0  0  0  0  0  0  0  0  0  0
  1  2  1  0  0  0  0
  2  3  1  0  0  0  0
  3  4  1  0  0  0  0
  3  5  1  0  0  0  0
  3  6  1  0  0  0  0
  2  7  1  0  0  0  0
  7  8  1  0  0  0  0
  7  9  1  0  0  0  0
  7 10  1  0  0  0  0
  2 11  1  0  0  0  0
 11 12  2  0  0  0  0
 12 13  1  0  0  0  0
 12 14  1  0  0  0  0
 14 15  1  0  0  0  0
 14 16  2  0  0  0  0
 16 17  1  0  0  0  0
 17 18  1  0  0  0  0
 18 19  2  0  0  0  0
 18 20  1  0  0  0  0
 20 21  2  0  0  0  0
 21 22  1  0  0  0  0
 21 23  1  0  0  0  0
 23 24  1  0  0  0  0
 24 25  1  0  0  0  0
 24 26  2  0  0  0  0
 20 26  1  0  0  0  0
 17 27  1  0  0  0  0
 27 28  1  0  0  0  0
 28 29  2  0  0  0  0
 28 30  1  0  0  0  0
 30 31  1  0  0  0  0
 31 32  1  0  0  0  0
 32 33  1  0  0  0  0
 32 34  1  0  0  0  0
 32 35  1  0  0  0  0
 35 36  1  0  0  0  0
 35 37  1  0  0  0  0
 35 38  1  0  0  0  0
 38 39  1  0  0  0  0
 39 40  1  0  0  0  0
 39 41  1  0  0  0  0
 39 42  1  0  0  0  0
 31 42  1  0  0  0  0
 42 43  1  0  0  0  0
 42 44  1  0  0  0  0
 31 45  1  0  0  0  0
 30 46  1  0  0  0  0
 27 47  1  0  0  0  0
 47 48  2  0  0  0  0
 48 49  1  0  0  0  0
 48 50  1  0  0  0  0
 50 51  1  0  0  0  0
 50 52  2  0  0  0  0
 52 53  1  0  0  0  0
 52 54  1  0  0  0  0
 54 55  2  0  0  0  0
 47 55  1  0  0  0  0
 55 56  1  0  0  0  0
 27 57  1  0  0  0  0
 16 58  1  0  0  0  0
 58 59  1  0  0  0  0
 58 60  2  0  0  0  0
 11 60  1  0  0  0  0
 60 61  1  0  0  0  0
  1 62  1  0  0  0  0
  1 63  1  0  0  0  0
  1 64  1  0  0  0  0
M  END
> <Potency>
3.89570998742511

> <pIC50>
5.4094133812464475

> <Outcome>
Active

> <is_active>
1

$$$$

  Mrv1921 08232120312D          

 64 67  0  0  0  0            999 V2000
   -2.1434   -3.7125    0.0000 C   0  0  0  0  0  0  0  0  0  0  0  0
   -1.4289   -3.3000    0.0000 C   0  0  0  0  0  0  0  0  0  0  0  0
   -1.0164   -4.0145    0.0000 C   0  0  0  0  0  0  0  0  0  0  0  0
   -0.9088   -4.8324    0.0000 H   0  0  0  0  0  0  0  0  0  0  0  0
   -0.2196   -4.2280    0.0000 H   0  0  0  0  0  0  0  0  0  0  0  0
   -0.5142   -3.3600    0.0000 H   0  0  0  0  0  0  0  0  0  0  0  0
   -1.8414   -2.5855    0.0000 C   0  0  0  0  0  0  0  0  0  0  0  0
   -1.0235   -2.4778    0.0000 H   0  0  0  0  0  0  0  0  0  0  0  0
   -1.6279   -1.7886    0.0000 H   0  0  0  0  0  0  0  0  0  0  0  0
   -2.4960   -2.0833    0.0000 H   0  0  0  0  0  0  0  0  0  0  0  0
   -0.7145   -2.8875    0.0000 C   0  0  0  0  0  0  0  0  0  0  0  0
   -0.7145   -2.0625    0.0000 C   0  0  0  0  0  0  0  0  0  0  0  0
   -0.8101   -1.2431    0.0000 H   0  0  0  0  0  0  0  0  0  0  0  0
    0.0000   -1.6500    0.0000 C   0  0  0  0  0  0  0  0  0  0  0  0
    0.7053   -1.2221    0.0000 H   0  0  0  0  0  0  0  0  0  0  0  0
    0.7145   -2.0625    0.0000 C   0  0  0  0  0  0  0  0  0  0  0  0
    1.4289   -1.6500    0.0000 N   0  0  0  0  0  0  0  0  0  0  0  0
    1.4289   -0.8250    0.0000 C   0  0  0  0  0  0  0  0  0  0  0  0
    2.1434   -0.4125    0.0000 O   0  0  0  0  0  0  0  0  0  0  0  0
    0.7145   -0.4125    0.0000 C   0  0  0  0  0  0  0  0  0  0  0  0
    0.6282    0.4080    0.0000 C   0  0  0  0  0  0  0  0  0  0  0  0
    1.2413    0.9600    0.0000 H   0  0  0  0  0  0  0  0  0  0  0  0
   -0.1787    0.5795    0.0000 O   0  0  0  0  0  0  0  0  0  0  0  0
   -0.5912   -0.1350    0.0000 C   0  0  0  0  0  0  0  0  0  0  0  0
   -1.4117   -0.2212    0.0000 H   0  0  0  0  0  0  0  0  0  0  0  0
   -0.0392   -0.7481    0.0000 N   0  0  0  0  0  0  0  0  0  0  0  0
    2.1434   -2.0625    0.0000 C   0  0  0  0  0  0  0  0  0  0  0  0
    2.8579   -1.6500    0.0000 C   0  0  0  0  0  0  0  0  0  0  0  0
    2.8579   -0.8250    0.0000 O   0  0  0  0  0  0  0  0  0  0  0  0
    3.5724   -2.0625    0.0000 N   0  0  0  0  0  0  0  0  0  0  0  0
    4.2868   -1.6500    0.0000 C   0  0  0  0  0  0  0  0  0  0  0  0
    5.0013   -2.0625    0.0000 C   0  0  0  0  0  0  0  0  0  0  0  0
    5.7550   -1.7269    0.0000 C   0  0  0  0  0  0  0  0  0  0  0  0
    6.2853   -1.0950    0.0000 H   0  0  0  0  0  0  0  0  0  0  0  0
    5.5276   -0.9339    0.0000 H   0  0  0  0  0  0  0  0  0  0  0  0
    6.3070   -2.3400    0.0000 C   0  0  0  0  0  0  0  0  0  0  0  0
    7.0719   -2.6491    0.0000 H   0  0  0  0  0  0  0  0  0  0  0  0
    6.9910   -1.8787    0.0000 H   0  0  0  0  0  0  0  0  0  0  0  0
    5.8945   -3.0545    0.0000 O   0  0  0  0  0  0  0  0  0  0  0  0
    5.0875   -2.8830    0.0000 C   0  0  0  0  0  0  0  0  0  0  0  0
    4.5545   -3.5126    0.0000 H   0  0  0  0  0  0  0  0  0  0  0  0
    5.1271   -3.7070    0.0000 H   0  0  0  0  0  0  0  0  0  0  0  0
    4.3094   -2.5118    0.0000 H   0  0  0  0  0  0  0  0  0  0  0  0
    4.6571   -0.9128    0.0000 H   0  0  0  0  0  0  0  0  0  0  0  0
    3.9166   -0.9128    0.0000 H   0  0  0  0  0  0  0  0  0  0  0  0
    3.5724   -2.8875    0.0000 H   0  0  0  0  0  0  0  0  0  0  0  0
    2.1434   -2.8875    0.0000 C   0  0  0  0  0  0  0  0  0  0  0  0
    2.8579   -3.3000    0.0000 C   0  0  0  0  0  0  0  0  0  0  0  0
    2.8579   -2.4750    0.0000 H   0  0  0  0  0  0  0  0  0  0  0  0
    2.8579   -4.1250    0.0000 C   0  0  0  0  0  0  0  0  0  0  0  0
    3.5724   -4.5375    0.0000 H   0  0  0  0  0  0  0  0  0  0  0  0
    2.1434   -4.5375    0.0000 C   0  0  0  0  0  0  0  0  0  0  0  0
    2.1434   -5.3625    0.0000 H   0  0  0  0  0  0  0  0  0  0  0  0
    1.4289   -4.1250    0.0000 N   0  0  0  0  0  0  0  0  0  0  0  0
    1.4289   -3.3000    0.0000 C   0  0  0  0  0  0  0  0  0  0  0  0
    1.4289   -2.4750    0.0000 H   0  0  0  0  0  0  0  0  0  0  0  0
    2.1434   -1.2375    0.0000 H   0  0  0  0  0  0  0  0  0  0  0  0
    0.7145   -2.8875    0.0000 C   0  0  0  0  0  0  0  0  0  0  0  0
    0.7145   -3.7125    0.0000 H   0  0  0  0  0  0  0  0  0  0  0  0
    0.0000   -3.3000    0.0000 C   0  0  0  0  0  0  0  0  0  0  0  0
    0.0000   -2.4750    0.0000 H   0  0  0  0  0  0  0  0  0  0  0  0
   -2.5559   -2.9980    0.0000 H   0  0  0  0  0  0  0  0  0  0  0  0
   -2.8579   -4.1250    0.0000 H   0  0  0  0  0  0  0  0  0  0  0  0
   -1.7309   -4.4270    0.0000 H   0  0  0  0  0  0  0  0  0  0  0  0
  1  2  1  0  0  0  0
  2  3  1  0  0  0  0
  3  4  1  0  0  0  0
  3  5  1  0  0  0  0
  3  6  1  0  0  0  0
  2  7  1  0  0  0  0
  7  8  1  0  0  0  0
  7  9  1  0  0  0  0
  7 10  1  0  0  0  0
  2 11  1  0  0  0  0
 11 12  2  0  0  0  0
 12 13  1  0  0  0  0
 12 14  1  0  0  0  0
 14 15  1  0  0  0  0
 14 16  2  0  0  0  0
 16 17  1  0  0  0  0
 17 18  1  0  0  0  0
 18 19  2  0  0  0  0
 18 20  1  0  0  0  0
 20 21  2  0  0  0  0
 21 22  1  0  0  0  0
 21 23  1  0  0  0  0
 23 24  1  0  0  0  0
 24 25  1  0  0  0  0
 24 26  2  0  0  0  0
 20 26  1  0  0  0  0
 17 27  1  0  0  0  0
 27 28  1  0  0  0  0
 28 29  2  0  0  0  0
 28 30  1  0  0  0  0
 30 31  1  0  0  0  0
 31 32  1  0  0  0  0
 32 33  1  0  0  0  0
 33 34  1  0  0  0  0
 33 35  1  0  0  0  0
 33 36  1  0  0  0  0
 36 37  1  0  0  0  0
 36 38  1  0  0  0  0
 36 39  1  0  0  0  0
 39 40  1  0  0  0  0
 32 40  1  0  0  0  0
 40 41  1  0  0  0  0
 40 42  1  0  0  0  0
 32 43  1  0  0  0  0
 31 44  1  0  0  0  0
 31 45  1  0  0  0  0
 30 46  1  0  0  0  0
 27 47  1  0  0  0  0
 47 48  2  0  0  0  0
 48 49  1  0  0  0  0
 48 50  1  0  0  0  0
 50 51  1  0  0  0  0
 50 52  2  0  0  0  0
 52 53  1  0  0  0  0
 52 54  1  0  0  0  0
 54 55  2  0  0  0  0
 47 55  1  0  0  0  0
 55 56  1  0  0  0  0
 27 57  1  0  0  0  0
 16 58  1  0  0  0  0
 58 59  1  0  0  0  0
 58 60  2  0  0  0  0
 11 60  1  0  0  0  0
 60 61  1  0  0  0  0
  1 62  1  0  0  0  0
  1 63  1  0  0  0  0
  1 64  1  0  0  0  0
M  END
> <Potency>
5.41667910396544

> <pIC50>
5.266266892215103

> <Outcome>
Active

> <is_active>
1

$$$$

  Mrv1921 08232120312D          

 60 63  0  0  0  0            999 V2000
   -1.6500    1.8118    0.0000 C   0  0  0  0  0  0  0  0  0  0  0  0
   -1.2375    1.0974    0.0000 C   0  0  0  0  0  0  0  0  0  0  0  0
   -1.9520    0.6849    0.0000 C   0  0  0  0  0  0  0  0  0  0  0  0
   -2.7699    0.5772    0.0000 H   0  0  0  0  0  0  0  0  0  0  0  0
   -2.1655   -0.1120    0.0000 H   0  0  0  0  0  0  0  0  0  0  0  0
   -1.2975    0.1826    0.0000 H   0  0  0  0  0  0  0  0  0  0  0  0
   -0.5230    1.5099    0.0000 C   0  0  0  0  0  0  0  0  0  0  0  0
   -0.4153    0.6919    0.0000 H   0  0  0  0  0  0  0  0  0  0  0  0
    0.2739    1.2963    0.0000 H   0  0  0  0  0  0  0  0  0  0  0  0
   -0.0208    2.1644    0.0000 H   0  0  0  0  0  0  0  0  0  0  0  0
   -0.8250    0.3829    0.0000 C   0  0  0  0  0  0  0  0  0  0  0  0
    0.0000    0.3829    0.0000 C   0  0  0  0  0  0  0  0  0  0  0  0
    0.8194    0.4785    0.0000 H   0  0  0  0  0  0  0  0  0  0  0  0
    0.4125   -0.3316    0.0000 C   0  0  0  0  0  0  0  0  0  0  0  0
    0.8250   -1.0461    0.0000 H   0  0  0  0  0  0  0  0  0  0  0  0
    0.0000   -1.0461    0.0000 C   0  0  0  0  0  0  0  0  0  0  0  0
    0.4125   -1.7605    0.0000 N   0  0  0  0  0  0  0  0  0  0  0  0
    0.0000   -2.4750    0.0000 C   0  0  0  0  0  0  0  0  0  0  0  0
    0.4125   -3.1895    0.0000 O   0  0  0  0  0  0  0  0  0  0  0  0
   -0.8250   -2.4750    0.0000 C   0  0  0  0  0  0  0  0  0  0  0  0
   -1.3099   -3.1424    0.0000 C   0  0  0  0  0  0  0  0  0  0  0  0
   -1.0550   -3.9271    0.0000 H   0  0  0  0  0  0  0  0  0  0  0  0
   -2.0945   -2.8875    0.0000 O   0  0  0  0  0  0  0  0  0  0  0  0
   -2.0945   -2.0625    0.0000 C   0  0  0  0  0  0  0  0  0  0  0  0
   -2.7620   -1.5776    0.0000 H   0  0  0  0  0  0  0  0  0  0  0  0
   -1.3099   -1.8076    0.0000 N   0  0  0  0  0  0  0  0  0  0  0  0
    1.2375   -1.7605    0.0000 C   0  0  0  0  0  0  0  0  0  0  0  0
    1.6500   -2.4750    0.0000 C   0  0  0  0  0  0  0  0  0  0  0  0
    1.2375   -3.1895    0.0000 O   0  0  0  0  0  0  0  0  0  0  0  0
    2.4750   -2.4750    0.0000 N   0  0  0  0  0  0  0  0  0  0  0  0
    2.8875   -3.1895    0.0000 C   0  0  0  0  0  0  0  0  0  0  0  0
    3.6844   -3.4030    0.0000 C   0  0  0  0  0  0  0  0  0  0  0  0
    4.5094   -3.4030    0.0000 H   0  0  0  0  0  0  0  0  0  0  0  0
    4.0969   -2.6885    0.0000 H   0  0  0  0  0  0  0  0  0  0  0  0
    3.4709   -4.1999    0.0000 C   0  0  0  0  0  0  0  0  0  0  0  0
    4.2678   -4.4134    0.0000 F   0  0  0  0  0  0  0  0  0  0  0  0
    3.2573   -4.9968    0.0000 F   0  0  0  0  0  0  0  0  0  0  0  0
    2.6740   -3.9864    0.0000 C   0  0  0  0  0  0  0  0  0  0  0  0
    1.9931   -4.4522    0.0000 H   0  0  0  0  0  0  0  0  0  0  0  0
    2.5574   -4.8031    0.0000 H   0  0  0  0  0  0  0  0  0  0  0  0
    2.0696   -3.2972    0.0000 H   0  0  0  0  0  0  0  0  0  0  0  0
    2.8875   -1.7605    0.0000 H   0  0  0  0  0  0  0  0  0  0  0  0
    1.6500   -1.0461    0.0000 C   0  0  0  0  0  0  0  0  0  0  0  0
    1.2375   -0.3316    0.0000 C   0  0  0  0  0  0  0  0  0  0  0  0
    2.0625   -0.3316    0.0000 H   0  0  0  0  0  0  0  0  0  0  0  0
    1.6500    0.3829    0.0000 C   0  0  0  0  0  0  0  0  0  0  0  0
    1.6973    1.2065    0.0000 H   0  0  0  0  0  0  0  0  0  0  0  0
    2.4750    0.3829    0.0000 C   0  0  0  0  0  0  0  0  0  0  0  0
    2.8875    1.0974    0.0000 H   0  0  0  0  0  0  0  0  0  0  0  0
    2.8875   -0.3316    0.0000 N   0  0  0  0  0  0  0  0  0  0  0  0
    2.4750   -1.0461    0.0000 C   0  0  0  0  0  0  0  0  0  0  0  0
    2.0625   -1.7605    0.0000 H   0  0  0  0  0  0  0  0  0  0  0  0
    0.8250   -2.4750    0.0000 H   0  0  0  0  0  0  0  0  0  0  0  0
   -0.8250   -1.0461    0.0000 C   0  0  0  0  0  0  0  0  0  0  0  0
   -1.6498   -1.0281    0.0000 H   0  0  0  0  0  0  0  0  0  0  0  0
   -1.2375   -0.3316    0.0000 C   0  0  0  0  0  0  0  0  0  0  0  0
   -0.4125   -0.3316    0.0000 H   0  0  0  0  0  0  0  0  0  0  0  0
   -0.9355    2.2243    0.0000 H   0  0  0  0  0  0  0  0  0  0  0  0
   -2.0625    2.5263    0.0000 H   0  0  0  0  0  0  0  0  0  0  0  0
   -2.3645    1.3993    0.0000 H   0  0  0  0  0  0  0  0  0  0  0  0
  1  2  1  0  0  0  0
  2  3  1  0  0  0  0
  3  4  1  0  0  0  0
  3  5  1  0  0  0  0
  3  6  1  0  0  0  0
  2  7  1  0  0  0  0
  7  8  1  0  0  0  0
  7  9  1  0  0  0  0
  7 10  1  0  0  0  0
  2 11  1  0  0  0  0
 11 12  2  0  0  0  0
 12 13  1  0  0  0  0
 12 14  1  0  0  0  0
 14 15  1  0  0  0  0
 14 16  2  0  0  0  0
 16 17  1  0  0  0  0
 17 18  1  0  0  0  0
 18 19  2  0  0  0  0
 18 20  1  0  0  0  0
 20 21  2  0  0  0  0
 21 22  1  0  0  0  0
 21 23  1  0  0  0  0
 23 24  1  0  0  0  0
 24 25  1  0  0  0  0
 24 26  2  0  0  0  0
 20 26  1  0  0  0  0
 17 27  1  0  0  0  0
 27 28  1  0  0  0  0
 28 29  2  0  0  0  0
 28 30  1  0  0  0  0
 30 31  1  0  0  0  0
 31 32  1  0  0  0  0
 32 33  1  0  0  0  0
 32 34  1  0  0  0  0
 32 35  1  0  0  0  0
 35 36  1  0  0  0  0
 35 37  1  0  0  0  0
 35 38  1  0  0  0  0
 31 38  1  0  0  0  0
 38 39  1  0  0  0  0
 38 40  1  0  0  0  0
 31 41  1  0  0  0  0
 30 42  1  0  0  0  0
 27 43  1  0  0  0  0
 43 44  2  0  0  0  0
 44 45  1  0  0  0  0
 44 46  1  0  0  0  0
 46 47  1  0  0  0  0
 46 48  2  0  0  0  0
 48 49  1  0  0  0  0
 48 50  1  0  0  0  0
 50 51  2  0  0  0  0
 43 51  1  0  0  0  0
 51 52  1  0  0  0  0
 27 53  1  0  0  0  0
 16 54  1  0  0  0  0
 54 55  1  0  0  0  0
 54 56  2  0  0  0  0
 11 56  1  0  0  0  0
 56 57  1  0  0  0  0
  1 58  1  0  0  0  0
  1 59  1  0  0  0  0
  1 60  1  0  0  0  0
M  END
> <Potency>
2.34702891021265

> <pIC50>
5.6294815608196025

> <Outcome>
Active

> <is_active>
1

$$$$

  Mrv1921 08232120312D          

 56 59  0  0  0  0            999 V2000
    3.5724    1.2375    0.0000 N   0  0  0  0  0  0  0  0  0  0  0  0
    4.2868    1.6500    0.0000 C   0  0  0  0  0  0  0  0  0  0  0  0
    4.2868    2.4750    0.0000 O   0  0  0  0  0  0  0  0  0  0  0  0
    5.0013    1.2375    0.0000 C   0  0  0  0  0  0  0  0  0  0  0  0
    5.7158    1.6500    0.0000 C   0  0  0  0  0  0  0  0  0  0  0  0
    5.7158    2.4750    0.0000 H   0  0  0  0  0  0  0  0  0  0  0  0
    6.4302    1.2375    0.0000 C   0  0  0  0  0  0  0  0  0  0  0  0
    7.1447    1.6500    0.0000 H   0  0  0  0  0  0  0  0  0  0  0  0
    6.4302    0.4125    0.0000 C   0  0  0  0  0  0  0  0  0  0  0  0
    7.1447    0.0000    0.0000 O   0  0  0  0  0  0  0  0  0  0  0  0
    7.8592    0.4125    0.0000 C   0  0  0  0  0  0  0  0  0  0  0  0
    8.5737    0.0000    0.0000 C   0  0  0  0  0  0  0  0  0  0  0  0
    8.5737   -0.8250    0.0000 O   0  0  0  0  0  0  0  0  0  0  0  0
    9.2881    0.4125    0.0000 N   0  0  0  0  0  0  0  0  0  0  0  0
   10.0026    0.0000    0.0000 C   0  0  0  0  0  0  0  0  0  0  0  0
   10.7171    0.4125    0.0000 C   0  0  0  0  0  0  0  0  0  0  0  0
   10.7171    1.2375    0.0000 O   0  0  0  0  0  0  0  0  0  0  0  0
   11.4315    0.0000    0.0000 N   0  0  0  0  0  0  0  0  0  0  0  0
   12.1460    0.4125    0.0000 C   0  0  0  0  0  0  0  0  0  0  0  0
   12.1460    1.2375    0.0000 C   0  0  0  0  0  0  0  0  0  0  0  0
   11.4315    1.6500    0.0000 H   0  0  0  0  0  0  0  0  0  0  0  0
   12.8605    1.6500    0.0000 N   0  0  0  0  0  0  0  0  0  0  0  0
   13.5749    1.2375    0.0000 C   0  0  0  0  0  0  0  0  0  0  0  0
   14.2894    1.6500    0.0000 H   0  0  0  0  0  0  0  0  0  0  0  0
   13.5749    0.4125    0.0000 C   0  0  0  0  0  0  0  0  0  0  0  0
   14.2894    0.0000    0.0000 C   0  0  0  0  0  0  0  0  0  0  0  0
   14.2894   -0.8250    0.0000 C   0  0  0  0  0  0  0  0  0  0  0  0
   13.5749   -1.2375    0.0000 C   0  0  0  0  0  0  0  0  0  0  0  0
   12.8605   -0.8250    0.0000 C   0  0  0  0  0  0  0  0  0  0  0  0
   12.1460   -1.2375    0.0000 H   0  0  0  0  0  0  0  0  0  0  0  0
   12.8605    0.0000    0.0000 C   0  0  0  0  0  0  0  0  0  0  0  0
   13.5749   -2.0625    0.0000 H   0  0  0  0  0  0  0  0  0  0  0  0
   15.0039   -1.2375    0.0000 H   0  0  0  0  0  0  0  0  0  0  0  0
   15.0039    0.4125    0.0000 H   0  0  0  0  0  0  0  0  0  0  0  0
   11.4315   -0.8250    0.0000 H   0  0  0  0  0  0  0  0  0  0  0  0
   10.0026   -0.8250    0.0000 C   0  0  0  0  0  0  0  0  0  0  0  0
   10.7171   -1.2375    0.0000 C   0  0  0  0  0  0  0  0  0  0  0  0
   10.7171   -0.4125    0.0000 H   0  0  0  0  0  0  0  0  0  0  0  0
   10.7171   -2.0625    0.0000 C   0  0  0  0  0  0  0  0  0  0  0  0
   11.4315   -2.4750    0.0000 H   0  0  0  0  0  0  0  0  0  0  0  0
   10.0026   -2.4750    0.0000 C   0  0  0  0  0  0  0  0  0  0  0  0
   10.0026   -3.3000    0.0000 H   0  0  0  0  0  0  0  0  0  0  0  0
    9.2881   -2.0625    0.0000 C   0  0  0  0  0  0  0  0  0  0  0  0
    8.5737   -2.4750    0.0000 Cl  0  0  0  0  0  0  0  0  0  0  0  0
    9.2881   -1.2375    0.0000 C   0  0  0  0  0  0  0  0  0  0  0  0
    9.2881   -0.4125    0.0000 H   0  0  0  0  0  0  0  0  0  0  0  0
   10.0026    0.8250    0.0000 H   0  0  0  0  0  0  0  0  0  0  0  0
    9.2881    1.2375    0.0000 H   0  0  0  0  0  0  0  0  0  0  0  0
    8.2294    1.1497    0.0000 H   0  0  0  0  0  0  0  0  0  0  0  0
    7.4889    1.1497    0.0000 H   0  0  0  0  0  0  0  0  0  0  0  0
    5.7158    0.0000    0.0000 C   0  0  0  0  0  0  0  0  0  0  0  0
    5.7158   -0.8250    0.0000 H   0  0  0  0  0  0  0  0  0  0  0  0
    5.0013    0.4125    0.0000 C   0  0  0  0  0  0  0  0  0  0  0  0
    4.2868    0.0000    0.0000 H   0  0  0  0  0  0  0  0  0  0  0  0
    2.8579    1.6500    0.0000 H   0  0  0  0  0  0  0  0  0  0  0  0
    3.5724    0.4125    0.0000 H   0  0  0  0  0  0  0  0  0  0  0  0
  1  2  1  0  0  0  0
  2  3  2  0  0  0  0
  2  4  1  0  0  0  0
  4  5  2  0  0  0  0
  5  6  1  0  0  0  0
  5  7  1  0  0  0  0
  7  8  1  0  0  0  0
  7  9  2  0  0  0  0
  9 10  1  0  0  0  0
 10 11  1  0  0  0  0
 11 12  1  0  0  0  0
 12 13  2  0  0  0  0
 12 14  1  0  0  0  0
 14 15  1  0  0  0  0
 15 16  1  0  0  0  0
 16 17  2  0  0  0  0
 16 18  1  0  0  0  0
 18 19  1  0  0  0  0
 19 20  2  0  0  0  0
 20 21  1  0  0  0  0
 20 22  1  0  0  0  0
 22 23  2  0  0  0  0
 23 24  1  0  0  0  0
 23 25  1  0  0  0  0
 25 26  2  0  0  0  0
 26 27  1  0  0  0  0
 27 28  2  0  0  0  0
 28 29  1  0  0  0  0
 29 30  1  0  0  0  0
 29 31  2  0  0  0  0
 19 31  1  0  0  0  0
 25 31  1  0  0  0  0
 28 32  1  0  0  0  0
 27 33  1  0  0  0  0
 26 34  1  0  0  0  0
 18 35  1  0  0  0  0
 15 36  1  0  0  0  0
 36 37  2  0  0  0  0
 37 38  1  0  0  0  0
 37 39  1  0  0  0  0
 39 40  1  0  0  0  0
 39 41  2  0  0  0  0
 41 42  1  0  0  0  0
 41 43  1  0  0  0  0
 43 44  1  0  0  0  0
 43 45  2  0  0  0  0
 36 45  1  0  0  0  0
 45 46  1  0  0  0  0
 15 47  1  0  0  0  0
 14 48  1  0  0  0  0
 11 49  1  0  0  0  0
 11 50  1  0  0  0  0
  9 51  1  0  0  0  0
 51 52  1  0  0  0  0
 51 53  2  0  0  0  0
  4 53  1  0  0  0  0
 53 54  1  0  0  0  0
  1 55  1  0  0  0  0
  1 56  1  0  0  0  0
M  END
> <Potency>
3.03275830744667

> <pIC50>
5.518162198962229

> <Outcome>
Active

> <is_active>
1

$$$$

  Mrv1921 08232120312D          

 41 43  0  0  0  0            999 V2000
    4.2868    0.8250    0.0000 C   0  0  0  0  0  0  0  0  0  0  0  0
    3.5724    1.2375    0.0000 C   0  0  0  0  0  0  0  0  0  0  0  0
    2.8579    0.8250    0.0000 O   0  0  0  0  0  0  0  0  0  0  0  0
    3.5724    2.0625    0.0000 N   0  0  0  0  0  0  0  0  0  0  0  0
    4.2868    2.4750    0.0000 C   0  0  0  0  0  0  0  0  0  0  0  0
    5.0013    2.0625    0.0000 C   0  0  0  0  0  0  0  0  0  0  0  0
    5.7158    2.4750    0.0000 O   0  0  0  0  0  0  0  0  0  0  0  0
    5.0013    1.2375    0.0000 N   0  0  0  0  0  0  0  0  0  0  0  0
    5.7158    0.8250    0.0000 C   0  0  0  0  0  0  0  0  0  0  0  0
    6.4302    1.2375    0.0000 C   0  0  0  0  0  0  0  0  0  0  0  0
    6.8427    1.9520    0.0000 H   0  0  0  0  0  0  0  0  0  0  0  0
    7.1447    0.8250    0.0000 N   0  0  0  0  0  0  0  0  0  0  0  0
    7.1447    0.0000    0.0000 C   0  0  0  0  0  0  0  0  0  0  0  0
    7.8592   -0.4125    0.0000 H   0  0  0  0  0  0  0  0  0  0  0  0
    6.4302   -0.4125    0.0000 C   0  0  0  0  0  0  0  0  0  0  0  0
    6.4302   -1.2375    0.0000 C   0  0  0  0  0  0  0  0  0  0  0  0
    5.7158   -1.6500    0.0000 C   0  0  0  0  0  0  0  0  0  0  0  0
    5.0013   -1.2375    0.0000 C   0  0  0  0  0  0  0  0  0  0  0  0
    5.0013   -0.4125    0.0000 C   0  0  0  0  0  0  0  0  0  0  0  0
    5.7158   -0.8250    0.0000 H   0  0  0  0  0  0  0  0  0  0  0  0
    5.7158    0.0000    0.0000 C   0  0  0  0  0  0  0  0  0  0  0  0
    4.2868   -1.6500    0.0000 H   0  0  0  0  0  0  0  0  0  0  0  0
    5.7158   -2.4750    0.0000 H   0  0  0  0  0  0  0  0  0  0  0  0
    7.1447   -1.6500    0.0000 H   0  0  0  0  0  0  0  0  0  0  0  0
    5.7158    1.6500    0.0000 H   0  0  0  0  0  0  0  0  0  0  0  0
    4.2868    3.3000    0.0000 C   0  0  0  0  0  0  0  0  0  0  0  0
    3.5724    3.7125    0.0000 C   0  0  0  0  0  0  0  0  0  0  0  0
    2.8579    3.3000    0.0000 H   0  0  0  0  0  0  0  0  0  0  0  0
    3.5724    4.5375    0.0000 C   0  0  0  0  0  0  0  0  0  0  0  0
    2.8579    4.9500    0.0000 H   0  0  0  0  0  0  0  0  0  0  0  0
    4.2868    4.9500    0.0000 C   0  0  0  0  0  0  0  0  0  0  0  0
    4.2868    5.7750    0.0000 Cl  0  0  0  0  0  0  0  0  0  0  0  0
    5.0013    4.5375    0.0000 C   0  0  0  0  0  0  0  0  0  0  0  0
    5.7158    4.9500    0.0000 Cl  0  0  0  0  0  0  0  0  0  0  0  0
    5.0013    3.7125    0.0000 C   0  0  0  0  0  0  0  0  0  0  0  0
    5.7158    3.3000    0.0000 H   0  0  0  0  0  0  0  0  0  0  0  0
    4.2868    1.6500    0.0000 H   0  0  0  0  0  0  0  0  0  0  0  0
    2.8579    2.4750    0.0000 H   0  0  0  0  0  0  0  0  0  0  0  0
    3.5724    0.4125    0.0000 H   0  0  0  0  0  0  0  0  0  0  0  0
    4.2868    0.0000    0.0000 H   0  0  0  0  0  0  0  0  0  0  0  0
    5.0013    0.4125    0.0000 H   0  0  0  0  0  0  0  0  0  0  0  0
  1  2  1  0  0  0  0
  2  3  2  0  0  0  0
  2  4  1  0  0  0  0
  4  5  1  0  0  0  0
  5  6  1  0  0  0  0
  6  7  2  0  0  0  0
  6  8  1  0  0  0  0
  8  9  1  0  0  0  0
  9 10  2  0  0  0  0
 10 11  1  0  0  0  0
 10 12  1  0  0  0  0
 12 13  2  0  0  0  0
 13 14  1  0  0  0  0
 13 15  1  0  0  0  0
 15 16  2  0  0  0  0
 16 17  1  0  0  0  0
 17 18  2  0  0  0  0
 18 19  1  0  0  0  0
 19 20  1  0  0  0  0
 19 21  2  0  0  0  0
  9 21  1  0  0  0  0
 15 21  1  0  0  0  0
 18 22  1  0  0  0  0
 17 23  1  0  0  0  0
 16 24  1  0  0  0  0
  8 25  1  0  0  0  0
  5 26  1  0  0  0  0
 26 27  2  0  0  0  0
 27 28  1  0  0  0  0
 27 29  1  0  0  0  0
 29 30  1  0  0  0  0
 29 31  2  0  0  0  0
 31 32  1  0  0  0  0
 31 33  1  0  0  0  0
 33 34  1  0  0  0  0
 33 35  2  0  0  0  0
 26 35  1  0  0  0  0
 35 36  1  0  0  0  0
  5 37  1  0  0  0  0
  4 38  1  0  0  0  0
  1 39  1  0  0  0  0
  1 40  1  0  0  0  0
  1 41  1  0  0  0  0
M  END
> <Potency>
4.05456669711331

> <pIC50>
5.39205555109711

> <Outcome>
Active

> <is_active>
1

$$$$

  Mrv1921 08232120312D          

 48 50  0  0  0  0            999 V2000
    0.7145   -7.0125    0.0000 C   0  0  0  0  0  0  0  0  0  0  0  0
    0.7145   -6.1875    0.0000 O   0  0  0  0  0  0  0  0  0  0  0  0
    1.4289   -5.7750    0.0000 C   0  0  0  0  0  0  0  0  0  0  0  0
    1.4289   -4.9500    0.0000 C   0  0  0  0  0  0  0  0  0  0  0  0
    2.1434   -4.5375    0.0000 O   0  0  0  0  0  0  0  0  0  0  0  0
    0.7145   -4.5375    0.0000 N   0  0  0  0  0  0  0  0  0  0  0  0
    0.7145   -3.7125    0.0000 C   0  0  0  0  0  0  0  0  0  0  0  0
    1.5395   -3.7125    0.0000 C   0  0  0  0  0  0  0  0  0  0  0  0
    1.5395   -4.5375    0.0000 H   0  0  0  0  0  0  0  0  0  0  0  0
    2.3645   -3.7125    0.0000 H   0  0  0  0  0  0  0  0  0  0  0  0
    1.5395   -2.8875    0.0000 H   0  0  0  0  0  0  0  0  0  0  0  0
    0.7145   -2.8875    0.0000 C   0  0  0  0  0  0  0  0  0  0  0  0
    0.0000   -2.4750    0.0000 O   0  0  0  0  0  0  0  0  0  0  0  0
    1.4289   -2.4750    0.0000 N   0  0  0  0  0  0  0  0  0  0  0  0
    1.4289   -1.6500    0.0000 C   0  0  0  0  0  0  0  0  0  0  0  0
    0.7145   -1.2375    0.0000 C   0  0  0  0  0  0  0  0  0  0  0  0
    0.0000   -1.6500    0.0000 H   0  0  0  0  0  0  0  0  0  0  0  0
    0.7145   -0.4125    0.0000 N   0  0  0  0  0  0  0  0  0  0  0  0
    1.4289    0.0000    0.0000 C   0  0  0  0  0  0  0  0  0  0  0  0
    1.4289    0.8250    0.0000 H   0  0  0  0  0  0  0  0  0  0  0  0
    2.1434   -0.4125    0.0000 C   0  0  0  0  0  0  0  0  0  0  0  0
    2.8579    0.0000    0.0000 C   0  0  0  0  0  0  0  0  0  0  0  0
    3.5724   -0.4125    0.0000 C   0  0  0  0  0  0  0  0  0  0  0  0
    3.5724   -1.2375    0.0000 C   0  0  0  0  0  0  0  0  0  0  0  0
    2.8579   -1.6500    0.0000 C   0  0  0  0  0  0  0  0  0  0  0  0
    3.3858   -2.2839    0.0000 H   0  0  0  0  0  0  0  0  0  0  0  0
    2.1434   -1.2375    0.0000 C   0  0  0  0  0  0  0  0  0  0  0  0
    4.2868   -1.6500    0.0000 H   0  0  0  0  0  0  0  0  0  0  0  0
    4.2868   -0.0000    0.0000 H   0  0  0  0  0  0  0  0  0  0  0  0
    2.8579    0.8250    0.0000 H   0  0  0  0  0  0  0  0  0  0  0  0
    2.2469   -2.3673    0.0000 H   0  0  0  0  0  0  0  0  0  0  0  0
   -0.1105   -3.7125    0.0000 C   0  0  0  0  0  0  0  0  0  0  0  0
   -0.5230   -4.4270    0.0000 C   0  0  0  0  0  0  0  0  0  0  0  0
   -0.8387   -5.1892    0.0000 H   0  0  0  0  0  0  0  0  0  0  0  0
   -1.3480   -4.4270    0.0000 C   0  0  0  0  0  0  0  0  0  0  0  0
   -2.0486   -4.8626    0.0000 H   0  0  0  0  0  0  0  0  0  0  0  0
   -1.7605   -3.7125    0.0000 C   0  0  0  0  0  0  0  0  0  0  0  0
   -2.5855   -3.7125    0.0000 Cl  0  0  0  0  0  0  0  0  0  0  0  0
   -1.3480   -2.9980    0.0000 C   0  0  0  0  0  0  0  0  0  0  0  0
   -1.7605   -2.2836    0.0000 Cl  0  0  0  0  0  0  0  0  0  0  0  0
   -0.5230   -2.9980    0.0000 C   0  0  0  0  0  0  0  0  0  0  0  0
   -0.8387   -2.2358    0.0000 H   0  0  0  0  0  0  0  0  0  0  0  0
    0.0000   -4.9500    0.0000 H   0  0  0  0  0  0  0  0  0  0  0  0
    1.8823   -6.4643    0.0000 H   0  0  0  0  0  0  0  0  0  0  0  0
    2.2525   -5.8230    0.0000 H   0  0  0  0  0  0  0  0  0  0  0  0
   -0.1105   -7.0125    0.0000 H   0  0  0  0  0  0  0  0  0  0  0  0
    0.7145   -7.8375    0.0000 H   0  0  0  0  0  0  0  0  0  0  0  0
    1.5395   -7.0125    0.0000 H   0  0  0  0  0  0  0  0  0  0  0  0
  1  2  1  0  0  0  0
  2  3  1  0  0  0  0
  3  4  1  0  0  0  0
  4  5  2  0  0  0  0
  4  6  1  0  0  0  0
  6  7  1  0  0  0  0
  7  8  1  0  0  0  0
  8  9  1  0  0  0  0
  8 10  1  0  0  0  0
  8 11  1  0  0  0  0
  7 12  1  0  0  0  0
 12 13  2  0  0  0  0
 12 14  1  0  0  0  0
 14 15  1  0  0  0  0
 15 16  2  0  0  0  0
 16 17  1  0  0  0  0
 16 18  1  0  0  0  0
 18 19  2  0  0  0  0
 19 20  1  0  0  0  0
 19 21  1  0  0  0  0
 21 22  2  0  0  0  0
 22 23  1  0  0  0  0
 23 24  2  0  0  0  0
 24 25  1  0  0  0  0
 25 26  1  0  0  0  0
 25 27  2  0  0  0  0
 15 27  1  0  0  0  0
 21 27  1  0  0  0  0
 24 28  1  0  0  0  0
 23 29  1  0  0  0  0
 22 30  1  0  0  0  0
 14 31  1  0  0  0  0
  7 32  1  0  0  0  0
 32 33  2  0  0  0  0
 33 34  1  0  0  0  0
 33 35  1  0  0  0  0
 35 36  1  0  0  0  0
 35 37  2  0  0  0  0
 37 38  1  0  0  0  0
 37 39  1  0  0  0  0
 39 40  1  0  0  0  0
 39 41  2  0  0  0  0
 32 41  1  0  0  0  0
 41 42  1  0  0  0  0
  6 43  1  0  0  0  0
  3 44  1  0  0  0  0
  3 45  1  0  0  0  0
  1 46  1  0  0  0  0
  1 47  1  0  0  0  0
  1 48  1  0  0  0  0
M  END
> <Potency>
8.83280229436638

> <pIC50>
5.053901490317837

> <Outcome>
Active

> <is_active>
1

$$$$

  Mrv1921 08232120312D          

 38 40  0  0  0  0            999 V2000
    3.5724   -1.2375    0.0000 C   0  0  0  0  0  0  0  0  0  0  0  0
    4.2868   -0.8250    0.0000 O   0  0  0  0  0  0  0  0  0  0  0  0
    4.2868    0.0000    0.0000 C   0  0  0  0  0  0  0  0  0  0  0  0
    5.0013    0.4125    0.0000 C   0  0  0  0  0  0  0  0  0  0  0  0
    5.0013    1.2375    0.0000 O   0  0  0  0  0  0  0  0  0  0  0  0
    5.7158    0.0000    0.0000 N   0  0  0  0  0  0  0  0  0  0  0  0
    6.4302    0.4125    0.0000 C   0  0  0  0  0  0  0  0  0  0  0  0
    6.4302    1.2375    0.0000 C   0  0  0  0  0  0  0  0  0  0  0  0
    5.7158    1.6500    0.0000 H   0  0  0  0  0  0  0  0  0  0  0  0
    7.1447    1.6500    0.0000 N   0  0  0  0  0  0  0  0  0  0  0  0
    7.8592    1.2375    0.0000 C   0  0  0  0  0  0  0  0  0  0  0  0
    8.5737    1.6500    0.0000 H   0  0  0  0  0  0  0  0  0  0  0  0
    7.8592    0.4125    0.0000 C   0  0  0  0  0  0  0  0  0  0  0  0
    8.5737    0.0000    0.0000 C   0  0  0  0  0  0  0  0  0  0  0  0
    8.5737   -0.8250    0.0000 C   0  0  0  0  0  0  0  0  0  0  0  0
    7.8592   -1.2375    0.0000 C   0  0  0  0  0  0  0  0  0  0  0  0
    7.1447   -0.8250    0.0000 C   0  0  0  0  0  0  0  0  0  0  0  0
    6.4302   -1.2375    0.0000 H   0  0  0  0  0  0  0  0  0  0  0  0
    7.1447    0.0000    0.0000 C   0  0  0  0  0  0  0  0  0  0  0  0
    7.8592   -2.0625    0.0000 H   0  0  0  0  0  0  0  0  0  0  0  0
    9.2881   -1.2375    0.0000 H   0  0  0  0  0  0  0  0  0  0  0  0
    9.2881    0.4125    0.0000 H   0  0  0  0  0  0  0  0  0  0  0  0
    6.1283   -0.7145    0.0000 H   0  0  0  0  0  0  0  0  0  0  0  0
    3.5724    0.4125    0.0000 C   0  0  0  0  0  0  0  0  0  0  0  0
    2.8579    0.0000    0.0000 C   0  0  0  0  0  0  0  0  0  0  0  0
    2.2745   -0.5834    0.0000 H   0  0  0  0  0  0  0  0  0  0  0  0
    2.1434    0.4125    0.0000 C   0  0  0  0  0  0  0  0  0  0  0  0
    1.4289    0.0000    0.0000 H   0  0  0  0  0  0  0  0  0  0  0  0
    2.1434    1.2375    0.0000 C   0  0  0  0  0  0  0  0  0  0  0  0
    1.4289    1.6500    0.0000 Cl  0  0  0  0  0  0  0  0  0  0  0  0
    2.8579    1.6500    0.0000 C   0  0  0  0  0  0  0  0  0  0  0  0
    2.8579    2.4750    0.0000 Cl  0  0  0  0  0  0  0  0  0  0  0  0
    3.5724    1.2375    0.0000 C   0  0  0  0  0  0  0  0  0  0  0  0
    4.2868    1.6500    0.0000 H   0  0  0  0  0  0  0  0  0  0  0  0
    5.0013   -0.4125    0.0000 H   0  0  0  0  0  0  0  0  0  0  0  0
    3.1599   -0.5230    0.0000 H   0  0  0  0  0  0  0  0  0  0  0  0
    2.8579   -1.6500    0.0000 H   0  0  0  0  0  0  0  0  0  0  0  0
    3.9849   -1.9520    0.0000 H   0  0  0  0  0  0  0  0  0  0  0  0
  1  2  1  0  0  0  0
  2  3  1  0  0  0  0
  3  4  1  0  0  0  0
  4  5  2  0  0  0  0
  4  6  1  0  0  0  0
  6  7  1  0  0  0  0
  7  8  2  0  0  0  0
  8  9  1  0  0  0  0
  8 10  1  0  0  0  0
 10 11  2  0  0  0  0
 11 12  1  0  0  0  0
 11 13  1  0  0  0  0
 13 14  2  0  0  0  0
 14 15  1  0  0  0  0
 15 16  2  0  0  0  0
 16 17  1  0  0  0  0
 17 18  1  0  0  0  0
 17 19  2  0  0  0  0
  7 19  1  0  0  0  0
 13 19  1  0  0  0  0
 16 20  1  0  0  0  0
 15 21  1  0  0  0  0
 14 22  1  0  0  0  0
  6 23  1  0  0  0  0
  3 24  1  0  0  0  0
 24 25  2  0  0  0  0
 25 26  1  0  0  0  0
 25 27  1  0  0  0  0
 27 28  1  0  0  0  0
 27 29  2  0  0  0  0
 29 30  1  0  0  0  0
 29 31  1  0  0  0  0
 31 32  1  0  0  0  0
 31 33  2  0  0  0  0
 24 33  1  0  0  0  0
 33 34  1  0  0  0  0
  3 35  1  0  0  0  0
  1 36  1  0  0  0  0
  1 37  1  0  0  0  0
  1 38  1  0  0  0  0
M  END
> <Potency>
1.07978912575273

> <pIC50>
5.966661050498193

> <Outcome>
Active

> <is_active>
1

$$$$

  Mrv1921 08232120312D          

 66 69  0  0  0  0            999 V2000
   -2.4304    1.4228    0.0000 C   0  0  0  0  0  0  0  0  0  0  0  0
   -1.8903    0.7991    0.0000 C   0  0  0  0  0  0  0  0  0  0  0  0
   -2.5140    0.2590    0.0000 C   0  0  0  0  0  0  0  0  0  0  0  0
   -3.2968   -0.0013    0.0000 H   0  0  0  0  0  0  0  0  0  0  0  0
   -2.5730   -0.5639    0.0000 H   0  0  0  0  0  0  0  0  0  0  0  0
   -1.7763   -0.1105    0.0000 H   0  0  0  0  0  0  0  0  0  0  0  0
   -1.2667    1.3392    0.0000 C   0  0  0  0  0  0  0  0  0  0  0  0
   -1.0064    0.5564    0.0000 H   0  0  0  0  0  0  0  0  0  0  0  0
   -0.4438    1.2801    0.0000 H   0  0  0  0  0  0  0  0  0  0  0  0
   -0.8972    2.0768    0.0000 H   0  0  0  0  0  0  0  0  0  0  0  0
   -1.3502    0.1755    0.0000 C   0  0  0  0  0  0  0  0  0  0  0  0
   -0.5401    0.3314    0.0000 C   0  0  0  0  0  0  0  0  0  0  0  0
    0.2465    0.5801    0.0000 H   0  0  0  0  0  0  0  0  0  0  0  0
    0.0000   -0.2923    0.0000 C   0  0  0  0  0  0  0  0  0  0  0  0
    0.5401   -0.9159    0.0000 H   0  0  0  0  0  0  0  0  0  0  0  0
   -0.2700   -1.0718    0.0000 C   0  0  0  0  0  0  0  0  0  0  0  0
    0.2700   -1.6954    0.0000 N   0  0  0  0  0  0  0  0  0  0  0  0
    0.0000   -2.4750    0.0000 C   0  0  0  0  0  0  0  0  0  0  0  0
    0.5401   -3.0986    0.0000 O   0  0  0  0  0  0  0  0  0  0  0  0
   -0.8101   -2.6309    0.0000 C   0  0  0  0  0  0  0  0  0  0  0  0
   -1.1602   -3.3780    0.0000 C   0  0  0  0  0  0  0  0  0  0  0  0
   -0.7616   -4.1003    0.0000 H   0  0  0  0  0  0  0  0  0  0  0  0
   -1.9788   -3.2759    0.0000 N   0  0  0  0  0  0  0  0  0  0  0  0
   -2.5426   -3.8782    0.0000 H   0  0  0  0  0  0  0  0  0  0  0  0
   -2.1348   -2.4658    0.0000 N   0  0  0  0  0  0  0  0  0  0  0  0
   -1.4125   -2.0671    0.0000 N   0  0  0  0  0  0  0  0  0  0  0  0
    1.0802   -1.5395    0.0000 C   0  0  0  0  0  0  0  0  0  0  0  0
    1.6203   -2.1632    0.0000 C   0  0  0  0  0  0  0  0  0  0  0  0
    1.3502   -2.9427    0.0000 O   0  0  0  0  0  0  0  0  0  0  0  0
    2.4304   -2.0073    0.0000 N   0  0  0  0  0  0  0  0  0  0  0  0
    2.9705   -2.6309    0.0000 C   0  0  0  0  0  0  0  0  0  0  0  0
    3.7806   -2.4750    0.0000 C   0  0  0  0  0  0  0  0  0  0  0  0
    4.3207   -3.0986    0.0000 C   0  0  0  0  0  0  0  0  0  0  0  0
    5.1308   -2.9427    0.0000 C   0  0  0  0  0  0  0  0  0  0  0  0
    5.4009   -2.1632    0.0000 H   0  0  0  0  0  0  0  0  0  0  0  0
    5.6709   -3.5664    0.0000 C   0  0  0  0  0  0  0  0  0  0  0  0
    6.4811   -3.4105    0.0000 H   0  0  0  0  0  0  0  0  0  0  0  0
    5.4009   -4.3459    0.0000 C   0  0  0  0  0  0  0  0  0  0  0  0
    5.9410   -4.9696    0.0000 H   0  0  0  0  0  0  0  0  0  0  0  0
    4.5908   -4.5018    0.0000 C   0  0  0  0  0  0  0  0  0  0  0  0
    4.3207   -5.2814    0.0000 F   0  0  0  0  0  0  0  0  0  0  0  0
    4.0507   -3.8782    0.0000 C   0  0  0  0  0  0  0  0  0  0  0  0
    3.2405   -4.0341    0.0000 H   0  0  0  0  0  0  0  0  0  0  0  0
    4.3718   -1.8996    0.0000 H   0  0  0  0  0  0  0  0  0  0  0  0
    3.6721   -1.6572    0.0000 H   0  0  0  0  0  0  0  0  0  0  0  0
    2.3793   -3.2063    0.0000 H   0  0  0  0  0  0  0  0  0  0  0  0
    3.0790   -3.4487    0.0000 H   0  0  0  0  0  0  0  0  0  0  0  0
    2.7004   -1.2277    0.0000 H   0  0  0  0  0  0  0  0  0  0  0  0
    1.3502   -0.7600    0.0000 C   0  0  0  0  0  0  0  0  0  0  0  0
    0.8101   -0.1363    0.0000 C   0  0  0  0  0  0  0  0  0  0  0  0
    1.6203    0.0196    0.0000 H   0  0  0  0  0  0  0  0  0  0  0  0
    1.0802    0.6432    0.0000 C   0  0  0  0  0  0  0  0  0  0  0  0
    0.9709    1.4609    0.0000 H   0  0  0  0  0  0  0  0  0  0  0  0
    1.8903    0.7991    0.0000 C   0  0  0  0  0  0  0  0  0  0  0  0
    2.1604    1.5787    0.0000 H   0  0  0  0  0  0  0  0  0  0  0  0
    2.4304    0.1755    0.0000 N   0  0  0  0  0  0  0  0  0  0  0  0
    2.1604   -0.6041    0.0000 C   0  0  0  0  0  0  0  0  0  0  0  0
    1.8903   -1.3836    0.0000 H   0  0  0  0  0  0  0  0  0  0  0  0
    0.8101   -2.3191    0.0000 H   0  0  0  0  0  0  0  0  0  0  0  0
   -1.0802   -1.2277    0.0000 C   0  0  0  0  0  0  0  0  0  0  0  0
   -1.8935   -1.3660    0.0000 H   0  0  0  0  0  0  0  0  0  0  0  0
   -1.6203   -0.6041    0.0000 C   0  0  0  0  0  0  0  0  0  0  0  0
   -0.8101   -0.4482    0.0000 H   0  0  0  0  0  0  0  0  0  0  0  0
   -1.8068    1.9628    0.0000 H   0  0  0  0  0  0  0  0  0  0  0  0
   -2.9705    2.0464    0.0000 H   0  0  0  0  0  0  0  0  0  0  0  0
   -3.0540    0.8827    0.0000 H   0  0  0  0  0  0  0  0  0  0  0  0
  1  2  1  0  0  0  0
  2  3  1  0  0  0  0
  3  4  1  0  0  0  0
  3  5  1  0  0  0  0
  3  6  1  0  0  0  0
  2  7  1  0  0  0  0
  7  8  1  0  0  0  0
  7  9  1  0  0  0  0
  7 10  1  0  0  0  0
  2 11  1  0  0  0  0
 11 12  2  0  0  0  0
 12 13  1  0  0  0  0
 12 14  1  0  0  0  0
 14 15  1  0  0  0  0
 14 16  2  0  0  0  0
 16 17  1  0  0  0  0
 17 18  1  0  0  0  0
 18 19  2  0  0  0  0
 18 20  1  0  0  0  0
 20 21  2  0  0  0  0
 21 22  1  0  0  0  0
 21 23  1  0  0  0  0
 23 24  1  0  0  0  0
 23 25  1  0  0  0  0
 25 26  2  0  0  0  0
 20 26  1  0  0  0  0
 17 27  1  0  0  0  0
 27 28  1  0  0  0  0
 28 29  2  0  0  0  0
 28 30  1  0  0  0  0
 30 31  1  0  0  0  0
 31 32  1  0  0  0  0
 32 33  1  0  0  0  0
 33 34  2  0  0  0  0
 34 35  1  0  0  0  0
 34 36  1  0  0  0  0
 36 37  1  0  0  0  0
 36 38  2  0  0  0  0
 38 39  1  0  0  0  0
 38 40  1  0  0  0  0
 40 41  1  0  0  0  0
 40 42  2  0  0  0  0
 33 42  1  0  0  0  0
 42 43  1  0  0  0  0
 32 44  1  0  0  0  0
 32 45  1  0  0  0  0
 31 46  1  0  0  0  0
 31 47  1  0  0  0  0
 30 48  1  0  0  0  0
 27 49  1  0  0  0  0
 49 50  2  0  0  0  0
 50 51  1  0  0  0  0
 50 52  1  0  0  0  0
 52 53  1  0  0  0  0
 52 54  2  0  0  0  0
 54 55  1  0  0  0  0
 54 56  1  0  0  0  0
 56 57  2  0  0  0  0
 49 57  1  0  0  0  0
 57 58  1  0  0  0  0
 27 59  1  0  0  0  0
 16 60  1  0  0  0  0
 60 61  1  0  0  0  0
 60 62  2  0  0  0  0
 11 62  1  0  0  0  0
 62 63  1  0  0  0  0
  1 64  1  0  0  0  0
  1 65  1  0  0  0  0
  1 66  1  0  0  0  0
M  END
> <Potency>
1.17054937449855

> <pIC50>
5.931610262770415

> <Outcome>
Active

> <is_active>
1

$$$$

  Mrv1921 08232120312D          

 50 53  0  0  0  0            999 V2000
    5.0013   -5.3625    0.0000 C   0  0  0  0  0  0  0  0  0  0  0  0
    4.2868   -4.9500    0.0000 O   0  0  0  0  0  0  0  0  0  0  0  0
    4.2868   -4.1250    0.0000 C   0  0  0  0  0  0  0  0  0  0  0  0
    3.5724   -3.7125    0.0000 C   0  0  0  0  0  0  0  0  0  0  0  0
    3.5724   -2.8875    0.0000 N   0  0  0  0  0  0  0  0  0  0  0  0
    2.8579   -2.4750    0.0000 C   0  0  0  0  0  0  0  0  0  0  0  0
    2.0343   -2.5230    0.0000 H   0  0  0  0  0  0  0  0  0  0  0  0
    2.4045   -3.1643    0.0000 H   0  0  0  0  0  0  0  0  0  0  0  0
    2.8579   -1.6500    0.0000 C   0  0  0  0  0  0  0  0  0  0  0  0
    2.8579   -0.8250    0.0000 H   0  0  0  0  0  0  0  0  0  0  0  0
    3.5724   -2.0625    0.0000 H   0  0  0  0  0  0  0  0  0  0  0  0
    3.5724   -1.2375    0.0000 C   0  0  0  0  0  0  0  0  0  0  0  0
    3.5724   -0.4125    0.0000 C   0  0  0  0  0  0  0  0  0  0  0  0
    4.2868    0.0000    0.0000 O   0  0  0  0  0  0  0  0  0  0  0  0
    2.8579    0.0000    0.0000 N   0  0  0  0  0  0  0  0  0  0  0  0
    2.1434   -0.4125    0.0000 C   0  0  0  0  0  0  0  0  0  0  0  0
    2.1434   -1.2375    0.0000 C   0  0  0  0  0  0  0  0  0  0  0  0
    2.1434   -2.0625    0.0000 H   0  0  0  0  0  0  0  0  0  0  0  0
    1.4289   -1.6500    0.0000 N   0  0  0  0  0  0  0  0  0  0  0  0
    0.7145   -1.2375    0.0000 C   0  0  0  0  0  0  0  0  0  0  0  0
    0.0000   -1.6500    0.0000 H   0  0  0  0  0  0  0  0  0  0  0  0
    0.7145   -0.4125    0.0000 C   0  0  0  0  0  0  0  0  0  0  0  0
    0.0000    0.0000    0.0000 C   0  0  0  0  0  0  0  0  0  0  0  0
    0.0000    0.8250    0.0000 C   0  0  0  0  0  0  0  0  0  0  0  0
    0.7145    1.2375    0.0000 C   0  0  0  0  0  0  0  0  0  0  0  0
    1.4289    0.8250    0.0000 C   0  0  0  0  0  0  0  0  0  0  0  0
    2.1434    1.2375    0.0000 H   0  0  0  0  0  0  0  0  0  0  0  0
    1.4289    0.0000    0.0000 C   0  0  0  0  0  0  0  0  0  0  0  0
    0.7145    2.0625    0.0000 H   0  0  0  0  0  0  0  0  0  0  0  0
   -0.7145    1.2375    0.0000 H   0  0  0  0  0  0  0  0  0  0  0  0
   -0.7145   -0.4125    0.0000 H   0  0  0  0  0  0  0  0  0  0  0  0
    2.8579    0.8250    0.0000 H   0  0  0  0  0  0  0  0  0  0  0  0
    4.2868   -0.8250    0.0000 H   0  0  0  0  0  0  0  0  0  0  0  0
    4.2868   -1.6500    0.0000 C   0  0  0  0  0  0  0  0  0  0  0  0
    5.0013   -1.2375    0.0000 C   0  0  0  0  0  0  0  0  0  0  0  0
    5.7158   -1.6500    0.0000 C   0  0  0  0  0  0  0  0  0  0  0  0
    6.4302   -1.2375    0.0000 Cl  0  0  0  0  0  0  0  0  0  0  0  0
    5.7158   -2.4750    0.0000 C   0  0  0  0  0  0  0  0  0  0  0  0
    5.0013   -2.8875    0.0000 C   0  0  0  0  0  0  0  0  0  0  0  0
    5.6073   -3.4473    0.0000 H   0  0  0  0  0  0  0  0  0  0  0  0
    4.2868   -2.4750    0.0000 C   0  0  0  0  0  0  0  0  0  0  0  0
    6.4302   -2.8875    0.0000 H   0  0  0  0  0  0  0  0  0  0  0  0
    5.4138   -0.5230    0.0000 H   0  0  0  0  0  0  0  0  0  0  0  0
    2.7488   -3.7605    0.0000 H   0  0  0  0  0  0  0  0  0  0  0  0
    3.1190   -4.4018    0.0000 H   0  0  0  0  0  0  0  0  0  0  0  0
    5.1104   -4.0770    0.0000 H   0  0  0  0  0  0  0  0  0  0  0  0
    4.7402   -3.4357    0.0000 H   0  0  0  0  0  0  0  0  0  0  0  0
    4.5888   -6.0770    0.0000 H   0  0  0  0  0  0  0  0  0  0  0  0
    5.7158   -5.7750    0.0000 H   0  0  0  0  0  0  0  0  0  0  0  0
    5.4138   -4.6480    0.0000 H   0  0  0  0  0  0  0  0  0  0  0  0
  1  2  1  0  0  0  0
  2  3  1  0  0  0  0
  3  4  1  0  0  0  0
  4  5  1  0  0  0  0
  5  6  1  0  0  0  0
  6  7  1  0  0  0  0
  6  8  1  0  0  0  0
  6  9  1  0  0  0  0
  9 10  1  0  0  0  0
  9 11  1  0  0  0  0
  9 12  1  0  0  0  0
 12 13  1  0  0  0  0
 13 14  2  0  0  0  0
 13 15  1  0  0  0  0
 15 16  1  0  0  0  0
 16 17  2  0  0  0  0
 17 18  1  0  0  0  0
 17 19  1  0  0  0  0
 19 20  2  0  0  0  0
 20 21  1  0  0  0  0
 20 22  1  0  0  0  0
 22 23  2  0  0  0  0
 23 24  1  0  0  0  0
 24 25  2  0  0  0  0
 25 26  1  0  0  0  0
 26 27  1  0  0  0  0
 26 28  2  0  0  0  0
 16 28  1  0  0  0  0
 22 28  1  0  0  0  0
 25 29  1  0  0  0  0
 24 30  1  0  0  0  0
 23 31  1  0  0  0  0
 15 32  1  0  0  0  0
 12 33  1  0  0  0  0
 12 34  1  0  0  0  0
 34 35  2  0  0  0  0
 35 36  1  0  0  0  0
 36 37  1  0  0  0  0
 36 38  2  0  0  0  0
 38 39  1  0  0  0  0
 39 40  1  0  0  0  0
 39 41  2  0  0  0  0
  5 41  1  0  0  0  0
 34 41  1  0  0  0  0
 38 42  1  0  0  0  0
 35 43  1  0  0  0  0
  4 44  1  0  0  0  0
  4 45  1  0  0  0  0
  3 46  1  0  0  0  0
  3 47  1  0  0  0  0
  1 48  1  0  0  0  0
  1 49  1  0  0  0  0
  1 50  1  0  0  0  0
M  END
> <Potency>
0.563812212178669

> <pIC50>
6.2488655215393205

> <Outcome>
Active

> <is_active>
1

$$$$

  Mrv1921 08232120312D          

 68 72  0  0  0  0            999 V2000
    0.4917   -4.4724    0.0000 O   0  0  0  0  0  0  0  0  0  0  0  0
    0.7314   -5.2618    0.0000 C   0  0  0  0  0  0  0  0  0  0  0  0
   -0.0787   -5.4177    0.0000 N   0  0  0  0  0  0  0  0  0  0  0  0
   -0.6188   -4.7941    0.0000 C   0  0  0  0  0  0  0  0  0  0  0  0
   -1.4289   -4.9500    0.0000 C   0  0  0  0  0  0  0  0  0  0  0  0
   -1.9690   -4.3264    0.0000 C   0  0  0  0  0  0  0  0  0  0  0  0
   -1.6990   -3.5468    0.0000 C   0  0  0  0  0  0  0  0  0  0  0  0
   -0.8889   -3.3909    0.0000 H   0  0  0  0  0  0  0  0  0  0  0  0
   -2.2391   -2.9232    0.0000 C   0  0  0  0  0  0  0  0  0  0  0  0
   -1.9690   -2.1436    0.0000 H   0  0  0  0  0  0  0  0  0  0  0  0
   -3.0492   -3.0791    0.0000 C   0  0  0  0  0  0  0  0  0  0  0  0
   -3.5893   -2.4554    0.0000 H   0  0  0  0  0  0  0  0  0  0  0  0
   -3.3193   -3.8586    0.0000 C   0  0  0  0  0  0  0  0  0  0  0  0
   -4.1294   -4.0145    0.0000 F   0  0  0  0  0  0  0  0  0  0  0  0
   -2.7792   -4.4823    0.0000 C   0  0  0  0  0  0  0  0  0  0  0  0
   -3.0492   -5.2618    0.0000 H   0  0  0  0  0  0  0  0  0  0  0  0
   -2.0201   -5.5254    0.0000 H   0  0  0  0  0  0  0  0  0  0  0  0
   -1.3204   -5.7678    0.0000 H   0  0  0  0  0  0  0  0  0  0  0  0
   -0.0276   -4.2187    0.0000 H   0  0  0  0  0  0  0  0  0  0  0  0
   -0.7273   -3.9763    0.0000 H   0  0  0  0  0  0  0  0  0  0  0  0
   -0.3488   -6.1973    0.0000 H   0  0  0  0  0  0  0  0  0  0  0  0
    1.2715   -5.8855    0.0000 C   0  0  0  0  0  0  0  0  0  0  0  0
    1.0015   -6.6650    0.0000 C   0  0  0  0  0  0  0  0  0  0  0  0
    0.1913   -6.8209    0.0000 C   0  0  0  0  0  0  0  0  0  0  0  0
   -0.6188   -6.9768    0.0000 H   0  0  0  0  0  0  0  0  0  0  0  0
   -0.0787   -7.6005    0.0000 C   0  0  0  0  0  0  0  0  0  0  0  0
   -0.7024   -8.1406    0.0000 H   0  0  0  0  0  0  0  0  0  0  0  0
    0.4614   -8.2241    0.0000 C   0  0  0  0  0  0  0  0  0  0  0  0
    0.1913   -9.0037    0.0000 H   0  0  0  0  0  0  0  0  0  0  0  0
    1.2715   -8.0682    0.0000 N   0  0  0  0  0  0  0  0  0  0  0  0
    1.5415   -7.2887    0.0000 C   0  0  0  0  0  0  0  0  0  0  0  0
    2.3517   -7.1327    0.0000 H   0  0  0  0  0  0  0  0  0  0  0  0
    2.0816   -5.7296    0.0000 N   0  0  0  0  0  0  0  0  0  0  0  0
    2.6217   -6.3532    0.0000 C   0  0  0  0  0  0  0  0  0  0  0  0
    3.4319   -6.1973    0.0000 C   0  0  0  0  0  0  0  0  0  0  0  0
    3.7019   -5.4177    0.0000 C   0  0  0  0  0  0  0  0  0  0  0  0
    2.8918   -5.5736    0.0000 H   0  0  0  0  0  0  0  0  0  0  0  0
    4.5120   -5.2618    0.0000 C   0  0  0  0  0  0  0  0  0  0  0  0
    4.7821   -4.4823    0.0000 H   0  0  0  0  0  0  0  0  0  0  0  0
    5.0521   -5.8855    0.0000 C   0  0  0  0  0  0  0  0  0  0  0  0
    5.8623   -5.7296    0.0000 H   0  0  0  0  0  0  0  0  0  0  0  0
    4.7821   -6.6650    0.0000 C   0  0  0  0  0  0  0  0  0  0  0  0
    5.3222   -7.2887    0.0000 H   0  0  0  0  0  0  0  0  0  0  0  0
    3.9720   -6.8209    0.0000 C   0  0  0  0  0  0  0  0  0  0  0  0
    3.7019   -7.6005    0.0000 C   0  0  0  0  0  0  0  0  0  0  0  0
    4.0622   -8.3427    0.0000 C   0  0  0  0  0  0  0  0  0  0  0  0
    4.3310   -9.1226    0.0000 H   0  0  0  0  0  0  0  0  0  0  0  0
    4.8189   -8.6714    0.0000 H   0  0  0  0  0  0  0  0  0  0  0  0
    3.3200   -8.7029    0.0000 C   0  0  0  0  0  0  0  0  0  0  0  0
    2.6964   -9.2430    0.0000 H   0  0  0  0  0  0  0  0  0  0  0  0
    3.4759   -9.5131    0.0000 H   0  0  0  0  0  0  0  0  0  0  0  0
    2.9597   -7.9608    0.0000 C   0  0  0  0  0  0  0  0  0  0  0  0
    2.4196   -7.3371    0.0000 H   0  0  0  0  0  0  0  0  0  0  0  0
    2.1496   -8.1167    0.0000 H   0  0  0  0  0  0  0  0  0  0  0  0
    4.5255   -7.5516    0.0000 H   0  0  0  0  0  0  0  0  0  0  0  0
    1.8116   -6.5091    0.0000 H   0  0  0  0  0  0  0  0  0  0  0  0
    3.1618   -6.9768    0.0000 H   0  0  0  0  0  0  0  0  0  0  0  0
    2.3517   -4.9500    0.0000 C   0  0  0  0  0  0  0  0  0  0  0  0
    3.1618   -4.7941    0.0000 O   0  0  0  0  0  0  0  0  0  0  0  0
    1.8116   -4.3264    0.0000 C   0  0  0  0  0  0  0  0  0  0  0  0
    0.9896   -4.3967    0.0000 C   0  0  0  0  0  0  0  0  0  0  0  0
    1.5103   -5.0366    0.0000 H   0  0  0  0  0  0  0  0  0  0  0  0
    0.6687   -3.6367    0.0000 C   0  0  0  0  0  0  0  0  0  0  0  0
    0.1341   -3.0084    0.0000 H   0  0  0  0  0  0  0  0  0  0  0  0
    1.2923   -3.0966    0.0000 C   0  0  0  0  0  0  0  0  0  0  0  0
    1.2219   -2.2746    0.0000 H   0  0  0  0  0  0  0  0  0  0  0  0
    1.9987   -3.5229    0.0000 O   0  0  0  0  0  0  0  0  0  0  0  0
    0.4614   -6.0414    0.0000 H   0  0  0  0  0  0  0  0  0  0  0  0
  1  2  2  0  0  0  0
  2  3  1  0  0  0  0
  3  4  1  0  0  0  0
  4  5  1  0  0  0  0
  5  6  1  0  0  0  0
  6  7  2  0  0  0  0
  7  8  1  0  0  0  0
  7  9  1  0  0  0  0
  9 10  1  0  0  0  0
  9 11  2  0  0  0  0
 11 12  1  0  0  0  0
 11 13  1  0  0  0  0
 13 14  1  0  0  0  0
 13 15  2  0  0  0  0
  6 15  1  0  0  0  0
 15 16  1  0  0  0  0
  5 17  1  0  0  0  0
  5 18  1  0  0  0  0
  4 19  1  0  0  0  0
  4 20  1  0  0  0  0
  3 21  1  0  0  0  0
  2 22  1  0  0  0  0
 22 23  1  0  0  0  0
 23 24  2  0  0  0  0
 24 25  1  0  0  0  0
 24 26  1  0  0  0  0
 26 27  1  0  0  0  0
 26 28  2  0  0  0  0
 28 29  1  0  0  0  0
 28 30  1  0  0  0  0
 30 31  2  0  0  0  0
 23 31  1  0  0  0  0
 31 32  1  0  0  0  0
 22 33  1  0  0  0  0
 33 34  1  0  0  0  0
 34 35  1  0  0  0  0
 35 36  2  0  0  0  0
 36 37  1  0  0  0  0
 36 38  1  0  0  0  0
 38 39  1  0  0  0  0
 38 40  2  0  0  0  0
 40 41  1  0  0  0  0
 40 42  1  0  0  0  0
 42 43  1  0  0  0  0
 42 44  2  0  0  0  0
 35 44  1  0  0  0  0
 44 45  1  0  0  0  0
 45 46  1  0  0  0  0
 46 47  1  0  0  0  0
 46 48  1  0  0  0  0
 46 49  1  0  0  0  0
 49 50  1  0  0  0  0
 49 51  1  0  0  0  0
 49 52  1  0  0  0  0
 45 52  1  0  0  0  0
 52 53  1  0  0  0  0
 52 54  1  0  0  0  0
 45 55  1  0  0  0  0
 34 56  1  0  0  0  0
 34 57  1  0  0  0  0
 33 58  1  0  0  0  0
 58 59  2  0  0  0  0
 58 60  1  0  0  0  0
 60 61  2  0  0  0  0
 61 62  1  0  0  0  0
 61 63  1  0  0  0  0
 63 64  1  0  0  0  0
 63 65  2  0  0  0  0
 65 66  1  0  0  0  0
 65 67  1  0  0  0  0
 60 67  1  0  0  0  0
 22 68  1  0  0  0  0
M  END
> <Potency>
1.9293414590257

> <pIC50>
5.7145909031766395

> <Outcome>
Active

> <is_active>
1

$$$$

  Mrv1921 08232120312D          

 52 55  0  0  0  0            999 V2000
    2.7345   10.5430    0.0000 C   0  0  0  0  0  0  0  0  0  0  0  0
    3.5314   10.3295    0.0000 C   0  0  0  0  0  0  0  0  0  0  0  0
    4.1148   10.9128    0.0000 C   0  0  0  0  0  0  0  0  0  0  0  0
    3.9012   11.7097    0.0000 H   0  0  0  0  0  0  0  0  0  0  0  0
    4.9117   10.6993    0.0000 C   0  0  0  0  0  0  0  0  0  0  0  0
    5.4950   11.2827    0.0000 H   0  0  0  0  0  0  0  0  0  0  0  0
    5.1252    9.9024    0.0000 N   0  0  0  0  0  0  0  0  0  0  0  0
    4.5418    9.3190    0.0000 C   0  0  0  0  0  0  0  0  0  0  0  0
    4.7554    8.5222    0.0000 H   0  0  0  0  0  0  0  0  0  0  0  0
    3.7449    9.5326    0.0000 C   0  0  0  0  0  0  0  0  0  0  0  0
    3.1616    8.9492    0.0000 N   0  0  0  0  0  0  0  0  0  0  0  0
    3.3751    8.1523    0.0000 C   0  0  0  0  0  0  0  0  0  0  0  0
    4.1720    7.9388    0.0000 O   0  0  0  0  0  0  0  0  0  0  0  0
    2.7917    7.5690    0.0000 C   0  0  0  0  0  0  0  0  0  0  0  0
    3.0053    6.7721    0.0000 C   0  0  0  0  0  0  0  0  0  0  0  0
    3.8021    6.5585    0.0000 C   0  0  0  0  0  0  0  0  0  0  0  0
    4.3855    7.1419    0.0000 H   0  0  0  0  0  0  0  0  0  0  0  0
    4.0157    5.7617    0.0000 C   0  0  0  0  0  0  0  0  0  0  0  0
    4.8126    5.5481    0.0000 Cl  0  0  0  0  0  0  0  0  0  0  0  0
    3.4323    5.1783    0.0000 C   0  0  0  0  0  0  0  0  0  0  0  0
    3.6458    4.3814    0.0000 H   0  0  0  0  0  0  0  0  0  0  0  0
    2.6354    5.3918    0.0000 C   0  0  0  0  0  0  0  0  0  0  0  0
    2.0521    4.8085    0.0000 C   0  0  0  0  0  0  0  0  0  0  0  0
    2.2656    4.0116    0.0000 C   0  0  0  0  0  0  0  0  0  0  0  0
    3.0625    3.7980    0.0000 H   0  0  0  0  0  0  0  0  0  0  0  0
    1.6822    3.4282    0.0000 C   0  0  0  0  0  0  0  0  0  0  0  0
    1.8957    2.6313    0.0000 H   0  0  0  0  0  0  0  0  0  0  0  0
    0.8853    3.6417    0.0000 C   0  0  0  0  0  0  0  0  0  0  0  0
    0.3020    3.0584    0.0000 C   0  0  0  0  0  0  0  0  0  0  0  0
   -0.2814    3.6417    0.0000 C   0  0  0  0  0  0  0  0  0  0  0  0
    0.3020    4.2251    0.0000 H   0  0  0  0  0  0  0  0  0  0  0  0
   -0.8648    4.2251    0.0000 H   0  0  0  0  0  0  0  0  0  0  0  0
   -0.8648    3.0584    0.0000 H   0  0  0  0  0  0  0  0  0  0  0  0
    0.8853    2.4750    0.0000 C   0  0  0  0  0  0  0  0  0  0  0  0
    1.5998    2.0625    0.0000 H   0  0  0  0  0  0  0  0  0  0  0  0
    1.5998    2.8875    0.0000 H   0  0  0  0  0  0  0  0  0  0  0  0
    0.3020    1.8916    0.0000 C   0  0  0  0  0  0  0  0  0  0  0  0
   -0.1105    1.1772    0.0000 H   0  0  0  0  0  0  0  0  0  0  0  0
    0.7145    1.1772    0.0000 H   0  0  0  0  0  0  0  0  0  0  0  0
   -0.2814    2.4750    0.0000 O   0  0  0  0  0  0  0  0  0  0  0  0
    0.6718    4.4386    0.0000 C   0  0  0  0  0  0  0  0  0  0  0  0
    0.1696    5.0931    0.0000 H   0  0  0  0  0  0  0  0  0  0  0  0
    1.2552    5.0220    0.0000 C   0  0  0  0  0  0  0  0  0  0  0  0
    1.0416    5.8189    0.0000 H   0  0  0  0  0  0  0  0  0  0  0  0
    2.4219    6.1887    0.0000 C   0  0  0  0  0  0  0  0  0  0  0  0
    1.6250    6.4022    0.0000 H   0  0  0  0  0  0  0  0  0  0  0  0
    2.1754    8.1174    0.0000 H   0  0  0  0  0  0  0  0  0  0  0  0
    1.9838    7.4021    0.0000 H   0  0  0  0  0  0  0  0  0  0  0  0
    2.3647    9.1627    0.0000 H   0  0  0  0  0  0  0  0  0  0  0  0
    2.9480   11.3399    0.0000 H   0  0  0  0  0  0  0  0  0  0  0  0
    1.9376   10.7565    0.0000 H   0  0  0  0  0  0  0  0  0  0  0  0
    2.5210    9.7461    0.0000 H   0  0  0  0  0  0  0  0  0  0  0  0
  1  2  1  0  0  0  0
  2  3  2  0  0  0  0
  3  4  1  0  0  0  0
  3  5  1  0  0  0  0
  5  6  1  0  0  0  0
  5  7  2  0  0  0  0
  7  8  1  0  0  0  0
  8  9  1  0  0  0  0
  8 10  2  0  0  0  0
  2 10  1  0  0  0  0
 10 11  1  0  0  0  0
 11 12  1  0  0  0  0
 12 13  2  0  0  0  0
 12 14  1  0  0  0  0
 14 15  1  0  0  0  0
 15 16  2  0  0  0  0
 16 17  1  0  0  0  0
 16 18  1  0  0  0  0
 18 19  1  0  0  0  0
 18 20  2  0  0  0  0
 20 21  1  0  0  0  0
 20 22  1  0  0  0  0
 22 23  1  0  0  0  0
 23 24  2  0  0  0  0
 24 25  1  0  0  0  0
 24 26  1  0  0  0  0
 26 27  1  0  0  0  0
 26 28  2  0  0  0  0
 28 29  1  0  0  0  0
 29 30  1  0  0  0  0
 30 31  1  0  0  0  0
 30 32  1  0  0  0  0
 30 33  1  0  0  0  0
 29 34  1  0  0  0  0
 34 35  1  0  0  0  0
 34 36  1  0  0  0  0
 34 37  1  0  0  0  0
 37 38  1  0  0  0  0
 37 39  1  0  0  0  0
 37 40  1  0  0  0  0
 29 40  1  0  0  0  0
 28 41  1  0  0  0  0
 41 42  1  0  0  0  0
 41 43  2  0  0  0  0
 23 43  1  0  0  0  0
 43 44  1  0  0  0  0
 22 45  2  0  0  0  0
 15 45  1  0  0  0  0
 45 46  1  0  0  0  0
 14 47  1  0  0  0  0
 14 48  1  0  0  0  0
 11 49  1  0  0  0  0
  1 50  1  0  0  0  0
  1 51  1  0  0  0  0
  1 52  1  0  0  0  0
M  END
> <Potency>
8.95275099425365

> <pIC50>
5.048043494511387

> <Outcome>
Active

> <is_active>
1

$$$$

  Mrv1921 08232120312D          

 44 47  0  0  0  0            999 V2000
    0.0000   -2.4750    0.0000 O   0  0  0  0  0  0  0  0  0  0  0  0
    0.7145   -2.8875    0.0000 C   0  0  0  0  0  0  0  0  0  0  0  0
    0.7145   -3.7125    0.0000 C   0  0  0  0  0  0  0  0  0  0  0  0
    0.0000   -4.1250    0.0000 C   0  0  0  0  0  0  0  0  0  0  0  0
    0.0000   -4.9500    0.0000 C   0  0  0  0  0  0  0  0  0  0  0  0
    0.7145   -5.3625    0.0000 H   0  0  0  0  0  0  0  0  0  0  0  0
   -0.7145   -5.3625    0.0000 C   0  0  0  0  0  0  0  0  0  0  0  0
   -0.7145   -6.1875    0.0000 Cl  0  0  0  0  0  0  0  0  0  0  0  0
   -1.4289   -4.9500    0.0000 C   0  0  0  0  0  0  0  0  0  0  0  0
   -2.1434   -5.3625    0.0000 H   0  0  0  0  0  0  0  0  0  0  0  0
   -1.4289   -4.1250    0.0000 C   0  0  0  0  0  0  0  0  0  0  0  0
   -2.1434   -3.7125    0.0000 O   0  0  0  0  0  0  0  0  0  0  0  0
   -2.8579   -4.1250    0.0000 C   0  0  0  0  0  0  0  0  0  0  0  0
   -2.8579   -4.9500    0.0000 C   0  0  0  0  0  0  0  0  0  0  0  0
   -2.1434   -4.5375    0.0000 H   0  0  0  0  0  0  0  0  0  0  0  0
   -3.5724   -5.3625    0.0000 C   0  0  0  0  0  0  0  0  0  0  0  0
   -3.5724   -6.1875    0.0000 H   0  0  0  0  0  0  0  0  0  0  0  0
   -4.2868   -4.9500    0.0000 C   0  0  0  0  0  0  0  0  0  0  0  0
   -5.0013   -5.3625    0.0000 H   0  0  0  0  0  0  0  0  0  0  0  0
   -4.2868   -4.1250    0.0000 N   0  0  0  0  0  0  0  0  0  0  0  0
   -3.5724   -3.7125    0.0000 C   0  0  0  0  0  0  0  0  0  0  0  0
   -3.5724   -2.8875    0.0000 H   0  0  0  0  0  0  0  0  0  0  0  0
   -0.7145   -3.7125    0.0000 C   0  0  0  0  0  0  0  0  0  0  0  0
   -0.7145   -2.8875    0.0000 H   0  0  0  0  0  0  0  0  0  0  0  0
    1.1678   -4.4018    0.0000 H   0  0  0  0  0  0  0  0  0  0  0  0
    1.5381   -3.7605    0.0000 H   0  0  0  0  0  0  0  0  0  0  0  0
    1.4289   -2.4750    0.0000 N   0  0  0  0  0  0  0  0  0  0  0  0
    1.4289   -1.6500    0.0000 C   0  0  0  0  0  0  0  0  0  0  0  0
    0.7145   -1.2375    0.0000 C   0  0  0  0  0  0  0  0  0  0  0  0
    0.0000   -1.6500    0.0000 H   0  0  0  0  0  0  0  0  0  0  0  0
    0.7145   -0.4125    0.0000 N   0  0  0  0  0  0  0  0  0  0  0  0
    1.4289    0.0000    0.0000 C   0  0  0  0  0  0  0  0  0  0  0  0
    1.4289    0.8250    0.0000 H   0  0  0  0  0  0  0  0  0  0  0  0
    2.1434   -0.4125    0.0000 C   0  0  0  0  0  0  0  0  0  0  0  0
    2.8579    0.0000    0.0000 C   0  0  0  0  0  0  0  0  0  0  0  0
    3.5724   -0.4125    0.0000 C   0  0  0  0  0  0  0  0  0  0  0  0
    3.5724   -1.2375    0.0000 C   0  0  0  0  0  0  0  0  0  0  0  0
    2.8579   -1.6500    0.0000 C   0  0  0  0  0  0  0  0  0  0  0  0
    2.8579   -2.4750    0.0000 H   0  0  0  0  0  0  0  0  0  0  0  0
    2.1434   -1.2375    0.0000 C   0  0  0  0  0  0  0  0  0  0  0  0
    4.2868   -1.6500    0.0000 H   0  0  0  0  0  0  0  0  0  0  0  0
    4.2868   -0.0000    0.0000 H   0  0  0  0  0  0  0  0  0  0  0  0
    2.8579    0.8250    0.0000 H   0  0  0  0  0  0  0  0  0  0  0  0
    2.1434   -2.8875    0.0000 H   0  0  0  0  0  0  0  0  0  0  0  0
  1  2  2  0  0  0  0
  2  3  1  0  0  0  0
  3  4  1  0  0  0  0
  4  5  2  0  0  0  0
  5  6  1  0  0  0  0
  5  7  1  0  0  0  0
  7  8  1  0  0  0  0
  7  9  2  0  0  0  0
  9 10  1  0  0  0  0
  9 11  1  0  0  0  0
 11 12  1  0  0  0  0
 12 13  1  0  0  0  0
 13 14  2  0  0  0  0
 14 15  1  0  0  0  0
 14 16  1  0  0  0  0
 16 17  1  0  0  0  0
 16 18  2  0  0  0  0
 18 19  1  0  0  0  0
 18 20  1  0  0  0  0
 20 21  2  0  0  0  0
 13 21  1  0  0  0  0
 21 22  1  0  0  0  0
 11 23  2  0  0  0  0
  4 23  1  0  0  0  0
 23 24  1  0  0  0  0
  3 25  1  0  0  0  0
  3 26  1  0  0  0  0
  2 27  1  0  0  0  0
 27 28  1  0  0  0  0
 28 29  2  0  0  0  0
 29 30  1  0  0  0  0
 29 31  1  0  0  0  0
 31 32  2  0  0  0  0
 32 33  1  0  0  0  0
 32 34  1  0  0  0  0
 34 35  2  0  0  0  0
 35 36  1  0  0  0  0
 36 37  2  0  0  0  0
 37 38  1  0  0  0  0
 38 39  1  0  0  0  0
 38 40  2  0  0  0  0
 28 40  1  0  0  0  0
 34 40  1  0  0  0  0
 37 41  1  0  0  0  0
 36 42  1  0  0  0  0
 35 43  1  0  0  0  0
 27 44  1  0  0  0  0
M  END
> <Potency>
1.33689973416716

> <pIC50>
5.8739011630677025

> <Outcome>
Active

> <is_active>
1

$$$$

  Mrv1921 08232120312D          

 41 42  0  0  0  0            999 V2000
    2.8579    0.8250    0.0000 C   0  0  0  0  0  0  0  0  0  0  0  0
    2.8579    0.0000    0.0000 O   0  0  0  0  0  0  0  0  0  0  0  0
    2.1434   -0.4125    0.0000 C   0  0  0  0  0  0  0  0  0  0  0  0
    2.1434   -1.2375    0.0000 C   0  0  0  0  0  0  0  0  0  0  0  0
    2.8579   -1.6500    0.0000 C   0  0  0  0  0  0  0  0  0  0  0  0
    3.5724   -1.2375    0.0000 H   0  0  0  0  0  0  0  0  0  0  0  0
    2.8579   -2.4750    0.0000 C   0  0  0  0  0  0  0  0  0  0  0  0
    3.5724   -2.8875    0.0000 Cl  0  0  0  0  0  0  0  0  0  0  0  0
    2.1434   -2.8875    0.0000 C   0  0  0  0  0  0  0  0  0  0  0  0
    2.1434   -3.7125    0.0000 H   0  0  0  0  0  0  0  0  0  0  0  0
    1.4289   -2.4750    0.0000 C   0  0  0  0  0  0  0  0  0  0  0  0
    0.7145   -2.8875    0.0000 C   0  0  0  0  0  0  0  0  0  0  0  0
    0.0000   -2.4750    0.0000 N   0  0  0  0  0  0  0  0  0  0  0  0
   -0.7145   -2.8875    0.0000 C   0  0  0  0  0  0  0  0  0  0  0  0
   -1.0847   -3.6247    0.0000 H   0  0  0  0  0  0  0  0  0  0  0  0
   -0.3442   -3.6247    0.0000 H   0  0  0  0  0  0  0  0  0  0  0  0
   -1.4289   -2.4750    0.0000 C   0  0  0  0  0  0  0  0  0  0  0  0
   -2.2525   -2.5230    0.0000 H   0  0  0  0  0  0  0  0  0  0  0  0
   -1.8823   -3.1643    0.0000 H   0  0  0  0  0  0  0  0  0  0  0  0
   -1.4289   -1.6500    0.0000 N   0  0  0  0  0  0  0  0  0  0  0  0
   -2.1434   -1.2375    0.0000 C   0  0  0  0  0  0  0  0  0  0  0  0
   -2.1434   -0.4125    0.0000 O   0  0  0  0  0  0  0  0  0  0  0  0
   -2.8579   -1.6500    0.0000 C   0  0  0  0  0  0  0  0  0  0  0  0
   -2.8579   -2.4750    0.0000 Cl  0  0  0  0  0  0  0  0  0  0  0  0
   -3.3112   -0.9607    0.0000 H   0  0  0  0  0  0  0  0  0  0  0  0
   -3.6815   -1.6020    0.0000 H   0  0  0  0  0  0  0  0  0  0  0  0
   -0.7145   -1.2375    0.0000 C   0  0  0  0  0  0  0  0  0  0  0  0
   -0.3442   -0.5003    0.0000 H   0  0  0  0  0  0  0  0  0  0  0  0
   -1.0847   -0.5003    0.0000 H   0  0  0  0  0  0  0  0  0  0  0  0
    0.0000   -1.6500    0.0000 C   0  0  0  0  0  0  0  0  0  0  0  0
    0.8236   -1.6020    0.0000 H   0  0  0  0  0  0  0  0  0  0  0  0
    0.4533   -0.9607    0.0000 H   0  0  0  0  0  0  0  0  0  0  0  0
    0.3442   -3.6247    0.0000 H   0  0  0  0  0  0  0  0  0  0  0  0
    1.0847   -3.6247    0.0000 H   0  0  0  0  0  0  0  0  0  0  0  0
    1.4289   -1.6500    0.0000 C   0  0  0  0  0  0  0  0  0  0  0  0
    1.2471   -0.8453    0.0000 H   0  0  0  0  0  0  0  0  0  0  0  0
    1.6901    0.2768    0.0000 H   0  0  0  0  0  0  0  0  0  0  0  0
    1.3198   -0.3645    0.0000 H   0  0  0  0  0  0  0  0  0  0  0  0
    3.6829    0.8250    0.0000 H   0  0  0  0  0  0  0  0  0  0  0  0
    2.8579    1.6500    0.0000 H   0  0  0  0  0  0  0  0  0  0  0  0
    2.0329    0.8250    0.0000 H   0  0  0  0  0  0  0  0  0  0  0  0
  1  2  1  0  0  0  0
  2  3  1  0  0  0  0
  3  4  1  0  0  0  0
  4  5  2  0  0  0  0
  5  6  1  0  0  0  0
  5  7  1  0  0  0  0
  7  8  1  0  0  0  0
  7  9  2  0  0  0  0
  9 10  1  0  0  0  0
  9 11  1  0  0  0  0
 11 12  1  0  0  0  0
 12 13  1  0  0  0  0
 13 14  1  0  0  0  0
 14 15  1  0  0  0  0
 14 16  1  0  0  0  0
 14 17  1  0  0  0  0
 17 18  1  0  0  0  0
 17 19  1  0  0  0  0
 17 20  1  0  0  0  0
 20 21  1  0  0  0  0
 21 22  2  0  0  0  0
 21 23  1  0  0  0  0
 23 24  1  0  0  0  0
 23 25  1  0  0  0  0
 23 26  1  0  0  0  0
 20 27  1  0  0  0  0
 27 28  1  0  0  0  0
 27 29  1  0  0  0  0
 27 30  1  0  0  0  0
 13 30  1  0  0  0  0
 30 31  1  0  0  0  0
 30 32  1  0  0  0  0
 12 33  1  0  0  0  0
 12 34  1  0  0  0  0
 11 35  2  0  0  0  0
  4 35  1  0  0  0  0
 35 36  1  0  0  0  0
  3 37  1  0  0  0  0
  3 38  1  0  0  0  0
  1 39  1  0  0  0  0
  1 40  1  0  0  0  0
  1 41  1  0  0  0  0
M  END
> <Potency>
4.7737546475135

> <pIC50>
5.321139905808782

> <Outcome>
Active

> <is_active>
1

$$$$

  Mrv1921 08232120312D          

 49 51  0  0  0  0            999 V2000
    0.0000   -2.4750    0.0000 O   0  0  0  0  0  0  0  0  0  0  0  0
    0.0000   -1.6500    0.0000 C   0  0  0  0  0  0  0  0  0  0  0  0
   -0.7145   -1.2375    0.0000 N   0  0  0  0  0  0  0  0  0  0  0  0
   -1.4289   -1.6500    0.0000 C   0  0  0  0  0  0  0  0  0  0  0  0
   -1.4289   -2.4750    0.0000 C   0  0  0  0  0  0  0  0  0  0  0  0
   -0.7145   -2.8875    0.0000 H   0  0  0  0  0  0  0  0  0  0  0  0
   -2.1434   -2.8875    0.0000 C   0  0  0  0  0  0  0  0  0  0  0  0
   -2.1434   -3.7125    0.0000 H   0  0  0  0  0  0  0  0  0  0  0  0
   -2.8579   -2.4750    0.0000 C   0  0  0  0  0  0  0  0  0  0  0  0
   -3.5724   -2.8875    0.0000 H   0  0  0  0  0  0  0  0  0  0  0  0
   -2.8579   -1.6500    0.0000 N   0  0  0  0  0  0  0  0  0  0  0  0
   -2.1434   -1.2375    0.0000 C   0  0  0  0  0  0  0  0  0  0  0  0
   -2.1434   -0.4125    0.0000 H   0  0  0  0  0  0  0  0  0  0  0  0
   -0.7145   -0.4125    0.0000 H   0  0  0  0  0  0  0  0  0  0  0  0
    0.7145   -1.2375    0.0000 N   0  0  0  0  0  0  0  0  0  0  0  0
    1.4289   -1.6500    0.0000 C   0  0  0  0  0  0  0  0  0  0  0  0
    2.1434   -1.2375    0.0000 C   0  0  0  0  0  0  0  0  0  0  0  0
    2.8579   -1.6500    0.0000 C   0  0  0  0  0  0  0  0  0  0  0  0
    3.5724   -1.2375    0.0000 C   0  0  0  0  0  0  0  0  0  0  0  0
    3.9426   -0.5003    0.0000 H   0  0  0  0  0  0  0  0  0  0  0  0
    3.2021   -0.5003    0.0000 H   0  0  0  0  0  0  0  0  0  0  0  0
    4.2868   -1.6500    0.0000 C   0  0  0  0  0  0  0  0  0  0  0  0
    5.1104   -1.6020    0.0000 H   0  0  0  0  0  0  0  0  0  0  0  0
    4.7402   -0.9607    0.0000 H   0  0  0  0  0  0  0  0  0  0  0  0
    4.2868   -2.4750    0.0000 C   0  0  0  0  0  0  0  0  0  0  0  0
    4.7402   -3.1643    0.0000 H   0  0  0  0  0  0  0  0  0  0  0  0
    5.1104   -2.5230    0.0000 H   0  0  0  0  0  0  0  0  0  0  0  0
    3.5724   -2.8875    0.0000 C   0  0  0  0  0  0  0  0  0  0  0  0
    3.2021   -3.6247    0.0000 H   0  0  0  0  0  0  0  0  0  0  0  0
    3.9426   -3.6247    0.0000 H   0  0  0  0  0  0  0  0  0  0  0  0
    2.8579   -2.4750    0.0000 C   0  0  0  0  0  0  0  0  0  0  0  0
    2.2259   -3.0053    0.0000 H   0  0  0  0  0  0  0  0  0  0  0  0
    2.7146   -3.2875    0.0000 H   0  0  0  0  0  0  0  0  0  0  0  0
    2.1434   -2.0625    0.0000 H   0  0  0  0  0  0  0  0  0  0  0  0
    2.5137   -0.5003    0.0000 H   0  0  0  0  0  0  0  0  0  0  0  0
    1.7732   -0.5003    0.0000 H   0  0  0  0  0  0  0  0  0  0  0  0
    1.0587   -2.3872    0.0000 H   0  0  0  0  0  0  0  0  0  0  0  0
    1.7992   -2.3872    0.0000 H   0  0  0  0  0  0  0  0  0  0  0  0
    0.7145   -0.4125    0.0000 C   0  0  0  0  0  0  0  0  0  0  0  0
    0.0000    0.0000    0.0000 C   0  0  0  0  0  0  0  0  0  0  0  0
    0.0000   -0.8250    0.0000 H   0  0  0  0  0  0  0  0  0  0  0  0
    0.0000    0.8250    0.0000 C   0  0  0  0  0  0  0  0  0  0  0  0
   -0.7145    1.2375    0.0000 H   0  0  0  0  0  0  0  0  0  0  0  0
    0.7145    1.2375    0.0000 C   0  0  0  0  0  0  0  0  0  0  0  0
    0.7145    2.0625    0.0000 H   0  0  0  0  0  0  0  0  0  0  0  0
    1.4289    0.8250    0.0000 C   0  0  0  0  0  0  0  0  0  0  0  0
    2.1434    1.2375    0.0000 Cl  0  0  0  0  0  0  0  0  0  0  0  0
    1.4289    0.0000    0.0000 C   0  0  0  0  0  0  0  0  0  0  0  0
    2.2168    0.2449    0.0000 H   0  0  0  0  0  0  0  0  0  0  0  0
  1  2  2  0  0  0  0
  2  3  1  0  0  0  0
  3  4  1  0  0  0  0
  4  5  2  0  0  0  0
  5  6  1  0  0  0  0
  5  7  1  0  0  0  0
  7  8  1  0  0  0  0
  7  9  2  0  0  0  0
  9 10  1  0  0  0  0
  9 11  1  0  0  0  0
 11 12  2  0  0  0  0
  4 12  1  0  0  0  0
 12 13  1  0  0  0  0
  3 14  1  0  0  0  0
  2 15  1  0  0  0  0
 15 16  1  0  0  0  0
 16 17  1  0  0  0  0
 17 18  1  0  0  0  0
 18 19  1  0  0  0  0
 19 20  1  0  0  0  0
 19 21  1  0  0  0  0
 19 22  1  0  0  0  0
 22 23  1  0  0  0  0
 22 24  1  0  0  0  0
 22 25  1  0  0  0  0
 25 26  1  0  0  0  0
 25 27  1  0  0  0  0
 25 28  1  0  0  0  0
 28 29  1  0  0  0  0
 28 30  1  0  0  0  0
 28 31  1  0  0  0  0
 18 31  1  0  0  0  0
 31 32  1  0  0  0  0
 31 33  1  0  0  0  0
 18 34  1  0  0  0  0
 17 35  1  0  0  0  0
 17 36  1  0  0  0  0
 16 37  1  0  0  0  0
 16 38  1  0  0  0  0
 15 39  1  0  0  0  0
 39 40  2  0  0  0  0
 40 41  1  0  0  0  0
 40 42  1  0  0  0  0
 42 43  1  0  0  0  0
 42 44  2  0  0  0  0
 44 45  1  0  0  0  0
 44 46  1  0  0  0  0
 46 47  1  0  0  0  0
 46 48  2  0  0  0  0
 39 48  1  0  0  0  0
 48 49  1  0  0  0  0
M  END
> <Potency>
3.05667196423036

> <pIC50>
5.514751166366755

> <Outcome>
Active

> <is_active>
1

$$$$

  Mrv1921 08232120312D          

 50 53  0  0  0  0            999 V2000
   -2.8579    4.1250    0.0000 C   0  0  0  0  0  0  0  0  0  0  0  0
   -2.1434    3.7125    0.0000 S   0  0  0  0  0  0  0  0  0  0  0  0
   -2.5559    2.9980    0.0000 O   0  0  0  0  0  0  0  0  0  0  0  0
   -1.7309    4.4270    0.0000 O   0  0  0  0  0  0  0  0  0  0  0  0
   -1.4289    3.3000    0.0000 N   0  0  0  0  0  0  0  0  0  0  0  0
   -0.7145    3.7125    0.0000 C   0  0  0  0  0  0  0  0  0  0  0  0
   -0.3442    4.4497    0.0000 H   0  0  0  0  0  0  0  0  0  0  0  0
   -1.0847    4.4497    0.0000 H   0  0  0  0  0  0  0  0  0  0  0  0
    0.0000    3.3000    0.0000 C   0  0  0  0  0  0  0  0  0  0  0  0
    0.7145    3.7125    0.0000 C   0  0  0  0  0  0  0  0  0  0  0  0
    1.4289    3.3000    0.0000 C   0  0  0  0  0  0  0  0  0  0  0  0
    1.4289    2.4750    0.0000 C   0  0  0  0  0  0  0  0  0  0  0  0
    2.1434    2.0625    0.0000 Cl  0  0  0  0  0  0  0  0  0  0  0  0
    0.7145    2.0625    0.0000 C   0  0  0  0  0  0  0  0  0  0  0  0
    0.7145    1.2375    0.0000 H   0  0  0  0  0  0  0  0  0  0  0  0
    0.0000    2.4750    0.0000 C   0  0  0  0  0  0  0  0  0  0  0  0
   -0.7145    2.0625    0.0000 C   0  0  0  0  0  0  0  0  0  0  0  0
   -0.7145    1.2375    0.0000 C   0  0  0  0  0  0  0  0  0  0  0  0
   -1.4289    0.8250    0.0000 O   0  0  0  0  0  0  0  0  0  0  0  0
    0.0000    0.8250    0.0000 N   0  0  0  0  0  0  0  0  0  0  0  0
    0.0000   -0.0000    0.0000 C   0  0  0  0  0  0  0  0  0  0  0  0
   -0.7145   -0.4125    0.0000 C   0  0  0  0  0  0  0  0  0  0  0  0
   -1.4289   -0.0000    0.0000 H   0  0  0  0  0  0  0  0  0  0  0  0
   -0.7145   -1.2375    0.0000 N   0  0  0  0  0  0  0  0  0  0  0  0
    0.0000   -1.6500    0.0000 C   0  0  0  0  0  0  0  0  0  0  0  0
    0.0000   -2.4750    0.0000 H   0  0  0  0  0  0  0  0  0  0  0  0
    0.7145   -1.2375    0.0000 C   0  0  0  0  0  0  0  0  0  0  0  0
    0.7145   -0.4125    0.0000 C   0  0  0  0  0  0  0  0  0  0  0  0
    1.4289   -0.0000    0.0000 C   0  0  0  0  0  0  0  0  0  0  0  0
    2.1434   -0.4125    0.0000 C   0  0  0  0  0  0  0  0  0  0  0  0
    2.1434   -1.2375    0.0000 C   0  0  0  0  0  0  0  0  0  0  0  0
    1.4289   -1.6500    0.0000 C   0  0  0  0  0  0  0  0  0  0  0  0
    1.0587   -2.3872    0.0000 H   0  0  0  0  0  0  0  0  0  0  0  0
    1.7992   -2.3872    0.0000 H   0  0  0  0  0  0  0  0  0  0  0  0
    2.5968   -1.9268    0.0000 H   0  0  0  0  0  0  0  0  0  0  0  0
    2.9670   -1.2855    0.0000 H   0  0  0  0  0  0  0  0  0  0  0  0
    2.9670   -0.3645    0.0000 H   0  0  0  0  0  0  0  0  0  0  0  0
    2.5968    0.2768    0.0000 H   0  0  0  0  0  0  0  0  0  0  0  0
    1.7992    0.7372    0.0000 H   0  0  0  0  0  0  0  0  0  0  0  0
    1.0587    0.7372    0.0000 H   0  0  0  0  0  0  0  0  0  0  0  0
    0.0000    1.6500    0.0000 H   0  0  0  0  0  0  0  0  0  0  0  0
   -1.4289    1.6500    0.0000 H   0  0  0  0  0  0  0  0  0  0  0  0
   -1.4289    2.4750    0.0000 C   0  0  0  0  0  0  0  0  0  0  0  0
   -2.2042    2.7572    0.0000 H   0  0  0  0  0  0  0  0  0  0  0  0
   -2.2042    2.1928    0.0000 H   0  0  0  0  0  0  0  0  0  0  0  0
    2.1434    3.7125    0.0000 H   0  0  0  0  0  0  0  0  0  0  0  0
    0.7145    4.5375    0.0000 H   0  0  0  0  0  0  0  0  0  0  0  0
   -2.4454    4.8395    0.0000 H   0  0  0  0  0  0  0  0  0  0  0  0
   -3.5724    4.5375    0.0000 H   0  0  0  0  0  0  0  0  0  0  0  0
   -3.2704    3.4105    0.0000 H   0  0  0  0  0  0  0  0  0  0  0  0
  1  2  1  0  0  0  0
  2  3  2  0  0  0  0
  2  4  2  0  0  0  0
  2  5  1  0  0  0  0
  5  6  1  0  0  0  0
  6  7  1  0  0  0  0
  6  8  1  0  0  0  0
  6  9  1  0  0  0  0
  9 10  2  0  0  0  0
 10 11  1  0  0  0  0
 11 12  2  0  0  0  0
 12 13  1  0  0  0  0
 12 14  1  0  0  0  0
 14 15  1  0  0  0  0
 14 16  2  0  0  0  0
  9 16  1  0  0  0  0
 16 17  1  0  0  0  0
 17 18  1  0  0  0  0
 18 19  2  0  0  0  0
 18 20  1  0  0  0  0
 20 21  1  0  0  0  0
 21 22  2  0  0  0  0
 22 23  1  0  0  0  0
 22 24  1  0  0  0  0
 24 25  2  0  0  0  0
 25 26  1  0  0  0  0
 25 27  1  0  0  0  0
 27 28  2  0  0  0  0
 21 28  1  0  0  0  0
 28 29  1  0  0  0  0
 29 30  1  0  0  0  0
 30 31  1  0  0  0  0
 31 32  1  0  0  0  0
 27 32  1  0  0  0  0
 32 33  1  0  0  0  0
 32 34  1  0  0  0  0
 31 35  1  0  0  0  0
 31 36  1  0  0  0  0
 30 37  1  0  0  0  0
 30 38  1  0  0  0  0
 29 39  1  0  0  0  0
 29 40  1  0  0  0  0
 20 41  1  0  0  0  0
 17 42  1  0  0  0  0
 17 43  1  0  0  0  0
  5 43  1  0  0  0  0
 43 44  1  0  0  0  0
 43 45  1  0  0  0  0
 11 46  1  0  0  0  0
 10 47  1  0  0  0  0
  1 48  1  0  0  0  0
  1 49  1  0  0  0  0
  1 50  1  0  0  0  0
M  END
> <Potency>
0.642464753438547

> <pIC50>
6.192150693377259

> <Outcome>
Active

> <is_active>
1

$$$$

  Mrv1921 08232120312D          

 38 40  0  0  0  0            999 V2000
    0.0000   -2.4750    0.0000 O   0  0  0  0  0  0  0  0  0  0  0  0
    0.7145   -2.8875    0.0000 C   0  0  0  0  0  0  0  0  0  0  0  0
    0.7145   -3.7125    0.0000 C   0  0  0  0  0  0  0  0  0  0  0  0
    0.0000   -4.1250    0.0000 C   0  0  0  0  0  0  0  0  0  0  0  0
    0.0000   -4.9500    0.0000 C   0  0  0  0  0  0  0  0  0  0  0  0
    0.7145   -5.3625    0.0000 H   0  0  0  0  0  0  0  0  0  0  0  0
   -0.7145   -5.3625    0.0000 C   0  0  0  0  0  0  0  0  0  0  0  0
   -0.7145   -6.1875    0.0000 Cl  0  0  0  0  0  0  0  0  0  0  0  0
   -1.4289   -4.9500    0.0000 C   0  0  0  0  0  0  0  0  0  0  0  0
   -2.1434   -5.3625    0.0000 H   0  0  0  0  0  0  0  0  0  0  0  0
   -1.4289   -4.1250    0.0000 C   0  0  0  0  0  0  0  0  0  0  0  0
   -2.1434   -3.7125    0.0000 O   0  0  0  0  0  0  0  0  0  0  0  0
   -2.8579   -4.1250    0.0000 C   0  0  0  0  0  0  0  0  0  0  0  0
   -3.5724   -4.5375    0.0000 F   0  0  0  0  0  0  0  0  0  0  0  0
   -2.4454   -4.8395    0.0000 F   0  0  0  0  0  0  0  0  0  0  0  0
   -3.2704   -3.4105    0.0000 F   0  0  0  0  0  0  0  0  0  0  0  0
   -0.7145   -3.7125    0.0000 C   0  0  0  0  0  0  0  0  0  0  0  0
   -0.7145   -2.8875    0.0000 H   0  0  0  0  0  0  0  0  0  0  0  0
    1.1678   -4.4018    0.0000 H   0  0  0  0  0  0  0  0  0  0  0  0
    1.5381   -3.7605    0.0000 H   0  0  0  0  0  0  0  0  0  0  0  0
    1.4289   -2.4750    0.0000 N   0  0  0  0  0  0  0  0  0  0  0  0
    1.4289   -1.6500    0.0000 C   0  0  0  0  0  0  0  0  0  0  0  0
    0.7145   -1.2375    0.0000 C   0  0  0  0  0  0  0  0  0  0  0  0
    0.0000   -1.6500    0.0000 H   0  0  0  0  0  0  0  0  0  0  0  0
    0.7145   -0.4125    0.0000 N   0  0  0  0  0  0  0  0  0  0  0  0
    1.4289    0.0000    0.0000 C   0  0  0  0  0  0  0  0  0  0  0  0
    1.4289    0.8250    0.0000 H   0  0  0  0  0  0  0  0  0  0  0  0
    2.1434   -0.4125    0.0000 C   0  0  0  0  0  0  0  0  0  0  0  0
    2.8579    0.0000    0.0000 C   0  0  0  0  0  0  0  0  0  0  0  0
    3.5724   -0.4125    0.0000 C   0  0  0  0  0  0  0  0  0  0  0  0
    3.5724   -1.2375    0.0000 C   0  0  0  0  0  0  0  0  0  0  0  0
    2.8579   -1.6500    0.0000 C   0  0  0  0  0  0  0  0  0  0  0  0
    2.8579   -2.4750    0.0000 H   0  0  0  0  0  0  0  0  0  0  0  0
    2.1434   -1.2375    0.0000 C   0  0  0  0  0  0  0  0  0  0  0  0
    4.2868   -1.6500    0.0000 H   0  0  0  0  0  0  0  0  0  0  0  0
    4.2868   -0.0000    0.0000 H   0  0  0  0  0  0  0  0  0  0  0  0
    2.8579    0.8250    0.0000 H   0  0  0  0  0  0  0  0  0  0  0  0
    2.1434   -2.8875    0.0000 H   0  0  0  0  0  0  0  0  0  0  0  0
  1  2  2  0  0  0  0
  2  3  1  0  0  0  0
  3  4  1  0  0  0  0
  4  5  2  0  0  0  0
  5  6  1  0  0  0  0
  5  7  1  0  0  0  0
  7  8  1  0  0  0  0
  7  9  2  0  0  0  0
  9 10  1  0  0  0  0
  9 11  1  0  0  0  0
 11 12  1  0  0  0  0
 12 13  1  0  0  0  0
 13 14  1  0  0  0  0
 13 15  1  0  0  0  0
 13 16  1  0  0  0  0
 11 17  2  0  0  0  0
  4 17  1  0  0  0  0
 17 18  1  0  0  0  0
  3 19  1  0  0  0  0
  3 20  1  0  0  0  0
  2 21  1  0  0  0  0
 21 22  1  0  0  0  0
 22 23  2  0  0  0  0
 23 24  1  0  0  0  0
 23 25  1  0  0  0  0
 25 26  2  0  0  0  0
 26 27  1  0  0  0  0
 26 28  1  0  0  0  0
 28 29  2  0  0  0  0
 29 30  1  0  0  0  0
 30 31  2  0  0  0  0
 31 32  1  0  0  0  0
 32 33  1  0  0  0  0
 32 34  2  0  0  0  0
 22 34  1  0  0  0  0
 28 34  1  0  0  0  0
 31 35  1  0  0  0  0
 30 36  1  0  0  0  0
 29 37  1  0  0  0  0
 21 38  1  0  0  0  0
M  END
> <Potency>
1.55332657748015

> <pIC50>
5.808737226894129

> <Outcome>
Active

> <is_active>
1

$$$$

  Mrv1921 08232120312D          

 68 72  0  0  0  0            999 V2000
    2.7599    0.5558    0.0000 O   0  0  0  0  0  0  0  0  0  0  0  0
    3.0421   -0.2195    0.0000 C   0  0  0  0  0  0  0  0  0  0  0  0
    3.8545   -0.3627    0.0000 C   0  0  0  0  0  0  0  0  0  0  0  0
    4.3848    0.2692    0.0000 C   0  0  0  0  0  0  0  0  0  0  0  0
    4.9151   -0.3627    0.0000 C   0  0  0  0  0  0  0  0  0  0  0  0
    4.6330   -1.1380    0.0000 O   0  0  0  0  0  0  0  0  0  0  0  0
    5.7276   -0.2195    0.0000 N   0  0  0  0  0  0  0  0  0  0  0  0
    6.2579   -0.8515    0.0000 C   0  0  0  0  0  0  0  0  0  0  0  0
    7.0704   -0.7082    0.0000 C   0  0  0  0  0  0  0  0  0  0  0  0
    7.7121   -0.1898    0.0000 H   0  0  0  0  0  0  0  0  0  0  0  0
    7.6007   -1.3402    0.0000 N   0  0  0  0  0  0  0  0  0  0  0  0
    7.3185   -2.1154    0.0000 C   0  0  0  0  0  0  0  0  0  0  0  0
    7.8488   -2.7474    0.0000 H   0  0  0  0  0  0  0  0  0  0  0  0
    6.5060   -2.2587    0.0000 C   0  0  0  0  0  0  0  0  0  0  0  0
    6.2239   -3.0340    0.0000 C   0  0  0  0  0  0  0  0  0  0  0  0
    5.4114   -3.1772    0.0000 C   0  0  0  0  0  0  0  0  0  0  0  0
    4.8811   -2.5452    0.0000 C   0  0  0  0  0  0  0  0  0  0  0  0
    5.1633   -1.7700    0.0000 C   0  0  0  0  0  0  0  0  0  0  0  0
    5.4454   -0.9947    0.0000 H   0  0  0  0  0  0  0  0  0  0  0  0
    5.9757   -1.6267    0.0000 C   0  0  0  0  0  0  0  0  0  0  0  0
    4.0686   -2.6885    0.0000 H   0  0  0  0  0  0  0  0  0  0  0  0
    5.1292   -3.9525    0.0000 H   0  0  0  0  0  0  0  0  0  0  0  0
    6.7542   -3.6659    0.0000 H   0  0  0  0  0  0  0  0  0  0  0  0
    6.5245   -0.0060    0.0000 H   0  0  0  0  0  0  0  0  0  0  0  0
    3.6704    0.6817    0.0000 C   0  0  0  0  0  0  0  0  0  0  0  0
    3.5121   -0.1279    0.0000 H   0  0  0  0  0  0  0  0  0  0  0  0
    4.3848    1.0942    0.0000 H   0  0  0  0  0  0  0  0  0  0  0  0
    3.6704    1.5067    0.0000 C   0  0  0  0  0  0  0  0  0  0  0  0
    3.2170    2.1960    0.0000 H   0  0  0  0  0  0  0  0  0  0  0  0
    2.8467    1.5547    0.0000 H   0  0  0  0  0  0  0  0  0  0  0  0
    4.3848    1.9192    0.0000 O   0  0  0  0  0  0  0  0  0  0  0  0
    5.0993    1.5067    0.0000 C   0  0  0  0  0  0  0  0  0  0  0  0
    5.8138    1.9192    0.0000 C   0  0  0  0  0  0  0  0  0  0  0  0
    6.5282    1.5067    0.0000 C   0  0  0  0  0  0  0  0  0  0  0  0
    6.5282    0.6817    0.0000 C   0  0  0  0  0  0  0  0  0  0  0  0
    7.2427    0.2692    0.0000 Cl  0  0  0  0  0  0  0  0  0  0  0  0
    5.8138    0.2692    0.0000 C   0  0  0  0  0  0  0  0  0  0  0  0
    5.0661   -0.0794    0.0000 H   0  0  0  0  0  0  0  0  0  0  0  0
    5.0993    0.6817    0.0000 C   0  0  0  0  0  0  0  0  0  0  0  0
    7.2427    1.9192    0.0000 H   0  0  0  0  0  0  0  0  0  0  0  0
    5.8138    2.7442    0.0000 H   0  0  0  0  0  0  0  0  0  0  0  0
    3.7587   -1.1822    0.0000 H   0  0  0  0  0  0  0  0  0  0  0  0
    4.4546   -0.9289    0.0000 H   0  0  0  0  0  0  0  0  0  0  0  0
    2.5118   -0.8515    0.0000 N   0  0  0  0  0  0  0  0  0  0  0  0
    2.7939   -1.6267    0.0000 C   0  0  0  0  0  0  0  0  0  0  0  0
    3.4557   -2.1194    0.0000 H   0  0  0  0  0  0  0  0  0  0  0  0
    3.5843   -1.3901    0.0000 H   0  0  0  0  0  0  0  0  0  0  0  0
    2.2636   -2.2587    0.0000 C   0  0  0  0  0  0  0  0  0  0  0  0
    2.1678   -3.0781    0.0000 H   0  0  0  0  0  0  0  0  0  0  0  0
    2.8637   -2.8249    0.0000 H   0  0  0  0  0  0  0  0  0  0  0  0
    1.4512   -2.1154    0.0000 N   0  0  0  0  0  0  0  0  0  0  0  0
    0.9209   -2.7474    0.0000 C   0  0  0  0  0  0  0  0  0  0  0  0
    0.1084   -2.6042    0.0000 C   0  0  0  0  0  0  0  0  0  0  0  0
    0.2516   -1.7917    0.0000 F   0  0  0  0  0  0  0  0  0  0  0  0
   -0.0349   -3.4166    0.0000 F   0  0  0  0  0  0  0  0  0  0  0  0
   -0.7041   -2.4609    0.0000 C   0  0  0  0  0  0  0  0  0  0  0  0
   -1.2344   -3.0929    0.0000 O   0  0  0  0  0  0  0  0  0  0  0  0
   -2.0468   -2.9496    0.0000 H   0  0  0  0  0  0  0  0  0  0  0  0
   -0.6083   -1.6415    0.0000 H   0  0  0  0  0  0  0  0  0  0  0  0
   -1.3042   -1.8948    0.0000 H   0  0  0  0  0  0  0  0  0  0  0  0
    0.8251   -3.5669    0.0000 H   0  0  0  0  0  0  0  0  0  0  0  0
    1.5209   -3.3136    0.0000 H   0  0  0  0  0  0  0  0  0  0  0  0
    1.1690   -1.3402    0.0000 C   0  0  0  0  0  0  0  0  0  0  0  0
    0.5072   -0.8475    0.0000 H   0  0  0  0  0  0  0  0  0  0  0  0
    0.3786   -1.5768    0.0000 H   0  0  0  0  0  0  0  0  0  0  0  0
    1.6993   -0.7082    0.0000 C   0  0  0  0  0  0  0  0  0  0  0  0
    1.7951    0.1112    0.0000 H   0  0  0  0  0  0  0  0  0  0  0  0
    1.0992   -0.1421    0.0000 H   0  0  0  0  0  0  0  0  0  0  0  0
  1  2  2  0  0  0  0
  2  3  1  0  0  0  0
  3  4  1  0  0  0  0
  4  5  1  0  0  0  0
  5  6  2  0  0  0  0
  5  7  1  0  0  0  0
  7  8  1  0  0  0  0
  8  9  2  0  0  0  0
  9 10  1  0  0  0  0
  9 11  1  0  0  0  0
 11 12  2  0  0  0  0
 12 13  1  0  0  0  0
 12 14  1  0  0  0  0
 14 15  2  0  0  0  0
 15 16  1  0  0  0  0
 16 17  2  0  0  0  0
 17 18  1  0  0  0  0
 18 19  1  0  0  0  0
 18 20  2  0  0  0  0
  8 20  1  0  0  0  0
 14 20  1  0  0  0  0
 17 21  1  0  0  0  0
 16 22  1  0  0  0  0
 15 23  1  0  0  0  0
  7 24  1  0  0  0  0
  4 25  1  0  0  0  0
 25 26  1  0  0  0  0
 25 27  1  0  0  0  0
 25 28  1  0  0  0  0
 28 29  1  0  0  0  0
 28 30  1  0  0  0  0
 28 31  1  0  0  0  0
 31 32  1  0  0  0  0
 32 33  2  0  0  0  0
 33 34  1  0  0  0  0
 34 35  2  0  0  0  0
 35 36  1  0  0  0  0
 35 37  1  0  0  0  0
 37 38  1  0  0  0  0
 37 39  2  0  0  0  0
  4 39  1  0  0  0  0
 32 39  1  0  0  0  0
 34 40  1  0  0  0  0
 33 41  1  0  0  0  0
  3 42  1  0  0  0  0
  3 43  1  0  0  0  0
  2 44  1  0  0  0  0
 44 45  1  0  0  0  0
 45 46  1  0  0  0  0
 45 47  1  0  0  0  0
 45 48  1  0  0  0  0
 48 49  1  0  0  0  0
 48 50  1  0  0  0  0
 48 51  1  0  0  0  0
 51 52  1  0  0  0  0
 52 53  1  0  0  0  0
 53 54  1  0  0  0  0
 53 55  1  0  0  0  0
 53 56  1  0  0  0  0
 56 57  1  0  0  0  0
 57 58  1  0  0  0  0
 56 59  1  0  0  0  0
 56 60  1  0  0  0  0
 52 61  1  0  0  0  0
 52 62  1  0  0  0  0
 51 63  1  0  0  0  0
 63 64  1  0  0  0  0
 63 65  1  0  0  0  0
 63 66  1  0  0  0  0
 44 66  1  0  0  0  0
 66 67  1  0  0  0  0
 66 68  1  0  0  0  0
M  END
> <Potency>
7.27966980064704

> <pIC50>
5.137888319451963

> <Outcome>
Active

> <is_active>
1

$$$$

  Mrv1921 08232120312D          

 73 75  0  0  0  0            999 V2000
   -0.6527   -3.3454    0.0000 C   0  0  0  0  0  0  0  0  0  0  0  0
    0.1574   -3.1895    0.0000 C   0  0  0  0  0  0  0  0  0  0  0  0
    0.3133   -3.9997    0.0000 C   0  0  0  0  0  0  0  0  0  0  0  0
    0.1474   -4.8078    0.0000 H   0  0  0  0  0  0  0  0  0  0  0  0
    0.9964   -4.4623    0.0000 H   0  0  0  0  0  0  0  0  0  0  0  0
    1.0021   -3.5456    0.0000 H   0  0  0  0  0  0  0  0  0  0  0  0
    0.0015   -2.3794    0.0000 C   0  0  0  0  0  0  0  0  0  0  0  0
    0.8097   -2.5454    0.0000 H   0  0  0  0  0  0  0  0  0  0  0  0
    0.4641   -1.6963    0.0000 H   0  0  0  0  0  0  0  0  0  0  0  0
   -0.4525   -1.6906    0.0000 H   0  0  0  0  0  0  0  0  0  0  0  0
    0.9676   -3.0336    0.0000 O   0  0  0  0  0  0  0  0  0  0  0  0
    1.5077   -3.6573    0.0000 C   0  0  0  0  0  0  0  0  0  0  0  0
    1.2376   -4.4368    0.0000 O   0  0  0  0  0  0  0  0  0  0  0  0
    2.3178   -3.5014    0.0000 N   0  0  0  0  0  0  0  0  0  0  0  0
    2.8579   -4.1250    0.0000 C   0  0  0  0  0  0  0  0  0  0  0  0
    3.6680   -3.9691    0.0000 C   0  0  0  0  0  0  0  0  0  0  0  0
    4.2081   -4.5927    0.0000 N   0  0  0  0  0  0  0  0  0  0  0  0
    5.0182   -4.4368    0.0000 C   0  0  0  0  0  0  0  0  0  0  0  0
    5.2883   -3.6573    0.0000 O   0  0  0  0  0  0  0  0  0  0  0  0
    5.5583   -5.0605    0.0000 C   0  0  0  0  0  0  0  0  0  0  0  0
    5.2883   -5.8400    0.0000 C   0  0  0  0  0  0  0  0  0  0  0  0
    5.8284   -6.4637    0.0000 C   0  0  0  0  0  0  0  0  0  0  0  0
    6.0984   -5.6841    0.0000 H   0  0  0  0  0  0  0  0  0  0  0  0
    5.5583   -7.2432    0.0000 C   0  0  0  0  0  0  0  0  0  0  0  0
    6.0984   -7.8668    0.0000 H   0  0  0  0  0  0  0  0  0  0  0  0
    4.7482   -7.3991    0.0000 C   0  0  0  0  0  0  0  0  0  0  0  0
    4.4782   -8.1787    0.0000 H   0  0  0  0  0  0  0  0  0  0  0  0
    4.2081   -6.7755    0.0000 N   0  0  0  0  0  0  0  0  0  0  0  0
    4.4782   -5.9959    0.0000 C   0  0  0  0  0  0  0  0  0  0  0  0
    3.6680   -6.1518    0.0000 H   0  0  0  0  0  0  0  0  0  0  0  0
    6.3685   -4.9046    0.0000 N   0  0  0  0  0  0  0  0  0  0  0  0
    6.6385   -4.1250    0.0000 C   0  0  0  0  0  0  0  0  0  0  0  0
    6.0984   -3.5014    0.0000 O   0  0  0  0  0  0  0  0  0  0  0  0
    7.4486   -3.9691    0.0000 C   0  0  0  0  0  0  0  0  0  0  0  0
    7.7987   -3.2220    0.0000 C   0  0  0  0  0  0  0  0  0  0  0  0
    7.4001   -2.4997    0.0000 H   0  0  0  0  0  0  0  0  0  0  0  0
    8.6174   -3.3241    0.0000 O   0  0  0  0  0  0  0  0  0  0  0  0
    8.7733   -4.1342    0.0000 C   0  0  0  0  0  0  0  0  0  0  0  0
    9.5203   -4.4843    0.0000 H   0  0  0  0  0  0  0  0  0  0  0  0
    8.0510   -4.5329    0.0000 N   0  0  0  0  0  0  0  0  0  0  0  0
    6.9086   -5.5282    0.0000 C   0  0  0  0  0  0  0  0  0  0  0  0
    7.7187   -5.3723    0.0000 C   0  0  0  0  0  0  0  0  0  0  0  0
    7.1923   -4.7371    0.0000 H   0  0  0  0  0  0  0  0  0  0  0  0
    8.2588   -5.9959    0.0000 C   0  0  0  0  0  0  0  0  0  0  0  0
    9.0689   -5.8400    0.0000 H   0  0  0  0  0  0  0  0  0  0  0  0
    7.9887   -6.7755    0.0000 C   0  0  0  0  0  0  0  0  0  0  0  0
    8.5288   -7.3991    0.0000 C   0  0  0  0  0  0  0  0  0  0  0  0
    9.0689   -8.0228    0.0000 C   0  0  0  0  0  0  0  0  0  0  0  0
    8.4453   -8.5628    0.0000 H   0  0  0  0  0  0  0  0  0  0  0  0
    9.6090   -8.6464    0.0000 H   0  0  0  0  0  0  0  0  0  0  0  0
    9.6926   -7.4827    0.0000 H   0  0  0  0  0  0  0  0  0  0  0  0
    7.9052   -7.9392    0.0000 C   0  0  0  0  0  0  0  0  0  0  0  0
    7.6449   -7.1564    0.0000 H   0  0  0  0  0  0  0  0  0  0  0  0
    7.0823   -7.8801    0.0000 H   0  0  0  0  0  0  0  0  0  0  0  0
    7.5357   -8.6768    0.0000 H   0  0  0  0  0  0  0  0  0  0  0  0
    9.1525   -6.8590    0.0000 C   0  0  0  0  0  0  0  0  0  0  0  0
    9.9353   -6.5987    0.0000 H   0  0  0  0  0  0  0  0  0  0  0  0
    9.2115   -6.0361    0.0000 H   0  0  0  0  0  0  0  0  0  0  0  0
    8.4148   -6.4895    0.0000 H   0  0  0  0  0  0  0  0  0  0  0  0
    7.1786   -6.9314    0.0000 C   0  0  0  0  0  0  0  0  0  0  0  0
    6.3920   -7.1801    0.0000 H   0  0  0  0  0  0  0  0  0  0  0  0
    6.6385   -6.3077    0.0000 C   0  0  0  0  0  0  0  0  0  0  0  0
    7.4486   -6.1518    0.0000 H   0  0  0  0  0  0  0  0  0  0  0  0
    4.7482   -5.2164    0.0000 H   0  0  0  0  0  0  0  0  0  0  0  0
    3.9381   -5.3723    0.0000 H   0  0  0  0  0  0  0  0  0  0  0  0
    4.2592   -3.3937    0.0000 H   0  0  0  0  0  0  0  0  0  0  0  0
    3.5595   -3.1513    0.0000 H   0  0  0  0  0  0  0  0  0  0  0  0
    2.2667   -4.7004    0.0000 H   0  0  0  0  0  0  0  0  0  0  0  0
    2.9664   -4.9428    0.0000 H   0  0  0  0  0  0  0  0  0  0  0  0
    2.5878   -2.7218    0.0000 H   0  0  0  0  0  0  0  0  0  0  0  0
   -0.8086   -2.5353    0.0000 H   0  0  0  0  0  0  0  0  0  0  0  0
   -1.4628   -3.5014    0.0000 H   0  0  0  0  0  0  0  0  0  0  0  0
   -0.4968   -4.1556    0.0000 H   0  0  0  0  0  0  0  0  0  0  0  0
  1  2  1  0  0  0  0
  2  3  1  0  0  0  0
  3  4  1  0  0  0  0
  3  5  1  0  0  0  0
  3  6  1  0  0  0  0
  2  7  1  0  0  0  0
  7  8  1  0  0  0  0
  7  9  1  0  0  0  0
  7 10  1  0  0  0  0
  2 11  1  0  0  0  0
 11 12  1  0  0  0  0
 12 13  2  0  0  0  0
 12 14  1  0  0  0  0
 14 15  1  0  0  0  0
 15 16  1  0  0  0  0
 16 17  1  0  0  0  0
 17 18  1  0  0  0  0
 18 19  2  0  0  0  0
 18 20  1  0  0  0  0
 20 21  1  0  0  0  0
 21 22  2  0  0  0  0
 22 23  1  0  0  0  0
 22 24  1  0  0  0  0
 24 25  1  0  0  0  0
 24 26  2  0  0  0  0
 26 27  1  0  0  0  0
 26 28  1  0  0  0  0
 28 29  2  0  0  0  0
 21 29  1  0  0  0  0
 29 30  1  0  0  0  0
 20 31  1  0  0  0  0
 31 32  1  0  0  0  0
 32 33  2  0  0  0  0
 32 34  1  0  0  0  0
 34 35  2  0  0  0  0
 35 36  1  0  0  0  0
 35 37  1  0  0  0  0
 37 38  1  0  0  0  0
 38 39  1  0  0  0  0
 38 40  2  0  0  0  0
 34 40  1  0  0  0  0
 31 41  1  0  0  0  0
 41 42  2  0  0  0  0
 42 43  1  0  0  0  0
 42 44  1  0  0  0  0
 44 45  1  0  0  0  0
 44 46  2  0  0  0  0
 46 47  1  0  0  0  0
 47 48  1  0  0  0  0
 48 49  1  0  0  0  0
 48 50  1  0  0  0  0
 48 51  1  0  0  0  0
 47 52  1  0  0  0  0
 52 53  1  0  0  0  0
 52 54  1  0  0  0  0
 52 55  1  0  0  0  0
 47 56  1  0  0  0  0
 56 57  1  0  0  0  0
 56 58  1  0  0  0  0
 56 59  1  0  0  0  0
 46 60  1  0  0  0  0
 60 61  1  0  0  0  0
 60 62  2  0  0  0  0
 41 62  1  0  0  0  0
 62 63  1  0  0  0  0
 20 64  1  0  0  0  0
 17 65  1  0  0  0  0
 16 66  1  0  0  0  0
 16 67  1  0  0  0  0
 15 68  1  0  0  0  0
 15 69  1  0  0  0  0
 14 70  1  0  0  0  0
  1 71  1  0  0  0  0
  1 72  1  0  0  0  0
  1 73  1  0  0  0  0
M  END
> <Potency>
6.25541459753454

> <pIC50>
5.203743900766022

> <Outcome>
Active

> <is_active>
1

$$$$

  Mrv1921 08232120312D          

 68 70  0  0  0  0            999 V2000
    3.6632   -6.0599    0.0000 C   0  0  0  0  0  0  0  0  0  0  0  0
    4.2868   -6.6000    0.0000 C   0  0  0  0  0  0  0  0  0  0  0  0
    5.0664   -6.3300    0.0000 O   0  0  0  0  0  0  0  0  0  0  0  0
    5.6900   -6.8700    0.0000 C   0  0  0  0  0  0  0  0  0  0  0  0
    5.5341   -7.6802    0.0000 O   0  0  0  0  0  0  0  0  0  0  0  0
    6.4696   -6.6000    0.0000 C   0  0  0  0  0  0  0  0  0  0  0  0
    7.0932   -7.1401    0.0000 C   0  0  0  0  0  0  0  0  0  0  0  0
    7.8728   -6.8700    0.0000 C   0  0  0  0  0  0  0  0  0  0  0  0
    8.4964   -7.4101    0.0000 N   0  0  0  0  0  0  0  0  0  0  0  0
    9.2760   -7.1401    0.0000 C   0  0  0  0  0  0  0  0  0  0  0  0
    9.4319   -6.3300    0.0000 O   0  0  0  0  0  0  0  0  0  0  0  0
    9.8996   -7.6802    0.0000 C   0  0  0  0  0  0  0  0  0  0  0  0
    9.7437   -8.4903    0.0000 C   0  0  0  0  0  0  0  0  0  0  0  0
   10.3673   -9.0304    0.0000 C   0  0  0  0  0  0  0  0  0  0  0  0
   10.5232   -8.2203    0.0000 H   0  0  0  0  0  0  0  0  0  0  0  0
   10.2114   -9.8405    0.0000 C   0  0  0  0  0  0  0  0  0  0  0  0
   10.8351  -10.3806    0.0000 H   0  0  0  0  0  0  0  0  0  0  0  0
    9.4319  -10.1106    0.0000 C   0  0  0  0  0  0  0  0  0  0  0  0
    9.2760  -10.9207    0.0000 H   0  0  0  0  0  0  0  0  0  0  0  0
    8.8082   -9.5705    0.0000 N   0  0  0  0  0  0  0  0  0  0  0  0
    8.9641   -8.7604    0.0000 C   0  0  0  0  0  0  0  0  0  0  0  0
    8.1846   -9.0304    0.0000 H   0  0  0  0  0  0  0  0  0  0  0  0
   10.6791   -7.4101    0.0000 N   0  0  0  0  0  0  0  0  0  0  0  0
   10.8351   -6.6000    0.0000 C   0  0  0  0  0  0  0  0  0  0  0  0
   10.2114   -6.0599    0.0000 O   0  0  0  0  0  0  0  0  0  0  0  0
   11.6146   -6.3300    0.0000 C   0  0  0  0  0  0  0  0  0  0  0  0
   11.8544   -5.5406    0.0000 C   0  0  0  0  0  0  0  0  0  0  0  0
   11.3566   -4.8826    0.0000 H   0  0  0  0  0  0  0  0  0  0  0  0
   12.6792   -5.5246    0.0000 O   0  0  0  0  0  0  0  0  0  0  0  0
   12.9492   -6.3042    0.0000 C   0  0  0  0  0  0  0  0  0  0  0  0
   13.7386   -6.5439    0.0000 H   0  0  0  0  0  0  0  0  0  0  0  0
   12.2913   -6.8019    0.0000 N   0  0  0  0  0  0  0  0  0  0  0  0
   11.3028   -7.9502    0.0000 C   0  0  0  0  0  0  0  0  0  0  0  0
   12.0823   -7.6802    0.0000 C   0  0  0  0  0  0  0  0  0  0  0  0
   11.4706   -7.1267    0.0000 H   0  0  0  0  0  0  0  0  0  0  0  0
   12.7060   -8.2203    0.0000 C   0  0  0  0  0  0  0  0  0  0  0  0
   13.4855   -7.9502    0.0000 H   0  0  0  0  0  0  0  0  0  0  0  0
   12.5501   -9.0304    0.0000 C   0  0  0  0  0  0  0  0  0  0  0  0
   13.1737   -9.5705    0.0000 C   0  0  0  0  0  0  0  0  0  0  0  0
   13.7974  -10.1106    0.0000 C   0  0  0  0  0  0  0  0  0  0  0  0
   13.2573  -10.7342    0.0000 H   0  0  0  0  0  0  0  0  0  0  0  0
   14.4210  -10.6507    0.0000 H   0  0  0  0  0  0  0  0  0  0  0  0
   14.3374   -9.4869    0.0000 H   0  0  0  0  0  0  0  0  0  0  0  0
   12.6336  -10.1941    0.0000 C   0  0  0  0  0  0  0  0  0  0  0  0
   12.2641   -9.4565    0.0000 H   0  0  0  0  0  0  0  0  0  0  0  0
   11.8107  -10.2532    0.0000 H   0  0  0  0  0  0  0  0  0  0  0  0
   12.3733  -10.9770    0.0000 H   0  0  0  0  0  0  0  0  0  0  0  0
   13.7138   -8.9468    0.0000 C   0  0  0  0  0  0  0  0  0  0  0  0
   14.4514   -8.5774    0.0000 H   0  0  0  0  0  0  0  0  0  0  0  0
   13.6547   -8.1240    0.0000 H   0  0  0  0  0  0  0  0  0  0  0  0
   12.9310   -8.6865    0.0000 H   0  0  0  0  0  0  0  0  0  0  0  0
   11.7705   -9.3004    0.0000 C   0  0  0  0  0  0  0  0  0  0  0  0
   11.0275   -9.6590    0.0000 H   0  0  0  0  0  0  0  0  0  0  0  0
   11.1469   -8.7604    0.0000 C   0  0  0  0  0  0  0  0  0  0  0  0
   11.9264   -8.4903    0.0000 H   0  0  0  0  0  0  0  0  0  0  0  0
    9.1200   -7.9502    0.0000 H   0  0  0  0  0  0  0  0  0  0  0  0
    8.3405   -8.2203    0.0000 H   0  0  0  0  0  0  0  0  0  0  0  0
    8.3757   -6.2161    0.0000 H   0  0  0  0  0  0  0  0  0  0  0  0
    7.6485   -6.0761    0.0000 H   0  0  0  0  0  0  0  0  0  0  0  0
    6.5903   -7.7941    0.0000 H   0  0  0  0  0  0  0  0  0  0  0  0
    7.3175   -7.9340    0.0000 H   0  0  0  0  0  0  0  0  0  0  0  0
    6.9725   -5.9460    0.0000 H   0  0  0  0  0  0  0  0  0  0  0  0
    6.2453   -5.8061    0.0000 H   0  0  0  0  0  0  0  0  0  0  0  0
    3.7839   -7.2540    0.0000 H   0  0  0  0  0  0  0  0  0  0  0  0
    4.5111   -7.3939    0.0000 H   0  0  0  0  0  0  0  0  0  0  0  0
    4.2033   -5.4363    0.0000 H   0  0  0  0  0  0  0  0  0  0  0  0
    3.0395   -5.5198    0.0000 H   0  0  0  0  0  0  0  0  0  0  0  0
    3.1231   -6.6836    0.0000 H   0  0  0  0  0  0  0  0  0  0  0  0
  1  2  1  0  0  0  0
  2  3  1  0  0  0  0
  3  4  1  0  0  0  0
  4  5  2  0  0  0  0
  4  6  1  0  0  0  0
  6  7  1  0  0  0  0
  7  8  1  0  0  0  0
  8  9  1  0  0  0  0
  9 10  1  0  0  0  0
 10 11  2  0  0  0  0
 10 12  1  0  0  0  0
 12 13  1  0  0  0  0
 13 14  2  0  0  0  0
 14 15  1  0  0  0  0
 14 16  1  0  0  0  0
 16 17  1  0  0  0  0
 16 18  2  0  0  0  0
 18 19  1  0  0  0  0
 18 20  1  0  0  0  0
 20 21  2  0  0  0  0
 13 21  1  0  0  0  0
 21 22  1  0  0  0  0
 12 23  1  0  0  0  0
 23 24  1  0  0  0  0
 24 25  2  0  0  0  0
 24 26  1  0  0  0  0
 26 27  2  0  0  0  0
 27 28  1  0  0  0  0
 27 29  1  0  0  0  0
 29 30  1  0  0  0  0
 30 31  1  0  0  0  0
 30 32  2  0  0  0  0
 26 32  1  0  0  0  0
 23 33  1  0  0  0  0
 33 34  2  0  0  0  0
 34 35  1  0  0  0  0
 34 36  1  0  0  0  0
 36 37  1  0  0  0  0
 36 38  2  0  0  0  0
 38 39  1  0  0  0  0
 39 40  1  0  0  0  0
 40 41  1  0  0  0  0
 40 42  1  0  0  0  0
 40 43  1  0  0  0  0
 39 44  1  0  0  0  0
 44 45  1  0  0  0  0
 44 46  1  0  0  0  0
 44 47  1  0  0  0  0
 39 48  1  0  0  0  0
 48 49  1  0  0  0  0
 48 50  1  0  0  0  0
 48 51  1  0  0  0  0
 38 52  1  0  0  0  0
 52 53  1  0  0  0  0
 52 54  2  0  0  0  0
 33 54  1  0  0  0  0
 54 55  1  0  0  0  0
 12 56  1  0  0  0  0
  9 57  1  0  0  0  0
  8 58  1  0  0  0  0
  8 59  1  0  0  0  0
  7 60  1  0  0  0  0
  7 61  1  0  0  0  0
  6 62  1  0  0  0  0
  6 63  1  0  0  0  0
  2 64  1  0  0  0  0
  2 65  1  0  0  0  0
  1 66  1  0  0  0  0
  1 67  1  0  0  0  0
  1 68  1  0  0  0  0
M  END
> <Potency>
6.23948403882958

> <pIC50>
5.204851321912738

> <Outcome>
Active

> <is_active>
1

$$$$

  Mrv1921 08232120312D          

 62 67  0  0  0  0            999 V2000
    1.6353   -3.9849    0.0000 C   0  0  0  0  0  0  0  0  0  0  0  0
    2.1656   -3.3529    0.0000 N   0  0  0  0  0  0  0  0  0  0  0  0
    2.9781   -3.4962    0.0000 C   0  0  0  0  0  0  0  0  0  0  0  0
    2.8823   -4.3156    0.0000 H   0  0  0  0  0  0  0  0  0  0  0  0
    3.5782   -4.0624    0.0000 H   0  0  0  0  0  0  0  0  0  0  0  0
    3.5084   -2.8642    0.0000 C   0  0  0  0  0  0  0  0  0  0  0  0
    2.6601   -2.9241    0.0000 C   0  0  0  0  0  0  0  0  0  0  0  0
    3.1371   -2.2509    0.0000 H   0  0  0  0  0  0  0  0  0  0  0  0
    2.4421   -2.1284    0.0000 H   0  0  0  0  0  0  0  0  0  0  0  0
    1.8835   -2.5777    0.0000 C   0  0  0  0  0  0  0  0  0  0  0  0
    2.4138   -1.9457    0.0000 C   0  0  0  0  0  0  0  0  0  0  0  0
    3.2262   -2.0890    0.0000 N   0  0  0  0  0  0  0  0  0  0  0  0
    3.7565   -1.4570    0.0000 C   0  0  0  0  0  0  0  0  0  0  0  0
    3.4744   -0.6817    0.0000 O   0  0  0  0  0  0  0  0  0  0  0  0
    4.5690   -1.6002    0.0000 C   0  0  0  0  0  0  0  0  0  0  0  0
    5.0993   -0.9683    0.0000 C   0  0  0  0  0  0  0  0  0  0  0  0
    5.6296   -1.6002    0.0000 C   0  0  0  0  0  0  0  0  0  0  0  0
    6.4421   -1.4570    0.0000 O   0  0  0  0  0  0  0  0  0  0  0  0
    5.3474   -2.3755    0.0000 N   0  0  0  0  0  0  0  0  0  0  0  0
    5.8777   -3.0075    0.0000 C   0  0  0  0  0  0  0  0  0  0  0  0
    6.6902   -2.8642    0.0000 C   0  0  0  0  0  0  0  0  0  0  0  0
    6.9724   -2.0890    0.0000 H   0  0  0  0  0  0  0  0  0  0  0  0
    7.2205   -3.4962    0.0000 N   0  0  0  0  0  0  0  0  0  0  0  0
    6.9383   -4.2715    0.0000 C   0  0  0  0  0  0  0  0  0  0  0  0
    7.4686   -4.9034    0.0000 H   0  0  0  0  0  0  0  0  0  0  0  0
    6.1259   -4.4147    0.0000 C   0  0  0  0  0  0  0  0  0  0  0  0
    5.8437   -5.1900    0.0000 C   0  0  0  0  0  0  0  0  0  0  0  0
    5.0312   -5.3332    0.0000 C   0  0  0  0  0  0  0  0  0  0  0  0
    4.5009   -4.7012    0.0000 C   0  0  0  0  0  0  0  0  0  0  0  0
    4.7831   -3.9260    0.0000 C   0  0  0  0  0  0  0  0  0  0  0  0
    3.9995   -3.6679    0.0000 H   0  0  0  0  0  0  0  0  0  0  0  0
    5.5956   -3.7827    0.0000 C   0  0  0  0  0  0  0  0  0  0  0  0
    3.6885   -4.8445    0.0000 H   0  0  0  0  0  0  0  0  0  0  0  0
    4.7491   -6.1085    0.0000 H   0  0  0  0  0  0  0  0  0  0  0  0
    6.3740   -5.8219    0.0000 H   0  0  0  0  0  0  0  0  0  0  0  0
    5.0177   -3.1318    0.0000 H   0  0  0  0  0  0  0  0  0  0  0  0
    4.3848   -0.5558    0.0000 C   0  0  0  0  0  0  0  0  0  0  0  0
    4.2265   -1.3654    0.0000 H   0  0  0  0  0  0  0  0  0  0  0  0
    5.0993   -0.1433    0.0000 H   0  0  0  0  0  0  0  0  0  0  0  0
    4.3848    0.2692    0.0000 C   0  0  0  0  0  0  0  0  0  0  0  0
    3.9315    0.9585    0.0000 H   0  0  0  0  0  0  0  0  0  0  0  0
    3.5612    0.3172    0.0000 H   0  0  0  0  0  0  0  0  0  0  0  0
    5.0993    0.6817    0.0000 O   0  0  0  0  0  0  0  0  0  0  0  0
    5.8138    0.2692    0.0000 C   0  0  0  0  0  0  0  0  0  0  0  0
    6.5282    0.6817    0.0000 C   0  0  0  0  0  0  0  0  0  0  0  0
    7.2427    0.2692    0.0000 C   0  0  0  0  0  0  0  0  0  0  0  0
    7.2427   -0.5558    0.0000 C   0  0  0  0  0  0  0  0  0  0  0  0
    7.9572   -0.9683    0.0000 Cl  0  0  0  0  0  0  0  0  0  0  0  0
    6.5282   -0.9683    0.0000 C   0  0  0  0  0  0  0  0  0  0  0  0
    7.2040   -1.4415    0.0000 H   0  0  0  0  0  0  0  0  0  0  0  0
    5.8138   -0.5558    0.0000 C   0  0  0  0  0  0  0  0  0  0  0  0
    7.9572    0.6817    0.0000 H   0  0  0  0  0  0  0  0  0  0  0  0
    6.5282    1.5067    0.0000 H   0  0  0  0  0  0  0  0  0  0  0  0
    4.4732   -2.4197    0.0000 H   0  0  0  0  0  0  0  0  0  0  0  0
    5.1691   -2.1664    0.0000 H   0  0  0  0  0  0  0  0  0  0  0  0
    2.5095   -1.1263    0.0000 H   0  0  0  0  0  0  0  0  0  0  0  0
    1.8137   -1.3796    0.0000 H   0  0  0  0  0  0  0  0  0  0  0  0
    1.0710   -2.4344    0.0000 H   0  0  0  0  0  0  0  0  0  0  0  0
    4.3209   -3.0075    0.0000 H   0  0  0  0  0  0  0  0  0  0  0  0
    1.0033   -3.4546    0.0000 H   0  0  0  0  0  0  0  0  0  0  0  0
    1.1050   -4.6169    0.0000 H   0  0  0  0  0  0  0  0  0  0  0  0
    2.2673   -4.5152    0.0000 H   0  0  0  0  0  0  0  0  0  0  0  0
  1  2  1  0  0  0  0
  2  3  1  0  0  0  0
  3  4  1  0  0  0  0
  3  5  1  0  0  0  0
  3  6  1  0  0  0  0
  6  7  1  0  0  0  0
  7  8  1  0  0  0  0
  7  9  1  0  0  0  0
  7 10  1  0  0  0  0
  2 10  1  0  0  0  0
 10 11  1  0  0  0  0
 11 12  1  0  0  0  0
  6 12  1  0  0  0  0
 12 13  1  0  0  0  0
 13 14  2  0  0  0  0
 13 15  1  0  0  0  0
 15 16  1  0  0  0  0
 16 17  1  0  0  0  0
 17 18  2  0  0  0  0
 17 19  1  0  0  0  0
 19 20  1  0  0  0  0
 20 21  2  0  0  0  0
 21 22  1  0  0  0  0
 21 23  1  0  0  0  0
 23 24  2  0  0  0  0
 24 25  1  0  0  0  0
 24 26  1  0  0  0  0
 26 27  2  0  0  0  0
 27 28  1  0  0  0  0
 28 29  2  0  0  0  0
 29 30  1  0  0  0  0
 30 31  1  0  0  0  0
 30 32  2  0  0  0  0
 20 32  1  0  0  0  0
 26 32  1  0  0  0  0
 29 33  1  0  0  0  0
 28 34  1  0  0  0  0
 27 35  1  0  0  0  0
 19 36  1  0  0  0  0
 16 37  1  0  0  0  0
 37 38  1  0  0  0  0
 37 39  1  0  0  0  0
 37 40  1  0  0  0  0
 40 41  1  0  0  0  0
 40 42  1  0  0  0  0
 40 43  1  0  0  0  0
 43 44  1  0  0  0  0
 44 45  2  0  0  0  0
 45 46  1  0  0  0  0
 46 47  2  0  0  0  0
 47 48  1  0  0  0  0
 47 49  1  0  0  0  0
 49 50  1  0  0  0  0
 49 51  2  0  0  0  0
 16 51  1  0  0  0  0
 44 51  1  0  0  0  0
 46 52  1  0  0  0  0
 45 53  1  0  0  0  0
 15 54  1  0  0  0  0
 15 55  1  0  0  0  0
 11 56  1  0  0  0  0
 11 57  1  0  0  0  0
 10 58  1  0  0  0  0
  6 59  1  0  0  0  0
  1 60  1  0  0  0  0
  1 61  1  0  0  0  0
  1 62  1  0  0  0  0
M  END
> <Potency>
6.39276301355131

> <pIC50>
5.194311395020952

> <Outcome>
Active

> <is_active>
1

$$$$

  Mrv1921 08232120312D          

 36 38  0  0  0  0            999 V2000
    1.4289   -4.1250    0.0000 N   0  0  0  0  0  0  0  0  0  0  0  0
    0.7145   -3.7125    0.0000 C   0  0  0  0  0  0  0  0  0  0  0  0
    0.7145   -2.8875    0.0000 C   0  0  0  0  0  0  0  0  0  0  0  0
    0.0000   -2.4750    0.0000 O   0  0  0  0  0  0  0  0  0  0  0  0
    1.4289   -2.4750    0.0000 N   0  0  0  0  0  0  0  0  0  0  0  0
    1.4289   -1.6500    0.0000 C   0  0  0  0  0  0  0  0  0  0  0  0
    0.7145   -1.2375    0.0000 C   0  0  0  0  0  0  0  0  0  0  0  0
    0.0000   -1.6500    0.0000 H   0  0  0  0  0  0  0  0  0  0  0  0
    0.7145   -0.4125    0.0000 N   0  0  0  0  0  0  0  0  0  0  0  0
    1.4289    0.0000    0.0000 C   0  0  0  0  0  0  0  0  0  0  0  0
    1.4289    0.8250    0.0000 H   0  0  0  0  0  0  0  0  0  0  0  0
    2.1434   -0.4125    0.0000 C   0  0  0  0  0  0  0  0  0  0  0  0
    2.8579    0.0000    0.0000 C   0  0  0  0  0  0  0  0  0  0  0  0
    3.5724   -0.4125    0.0000 C   0  0  0  0  0  0  0  0  0  0  0  0
    3.5724   -1.2375    0.0000 C   0  0  0  0  0  0  0  0  0  0  0  0
    2.8579   -1.6500    0.0000 C   0  0  0  0  0  0  0  0  0  0  0  0
    2.8579   -2.4750    0.0000 H   0  0  0  0  0  0  0  0  0  0  0  0
    2.1434   -1.2375    0.0000 C   0  0  0  0  0  0  0  0  0  0  0  0
    4.2868   -1.6500    0.0000 H   0  0  0  0  0  0  0  0  0  0  0  0
    4.2868   -0.0000    0.0000 H   0  0  0  0  0  0  0  0  0  0  0  0
    2.8579    0.8250    0.0000 H   0  0  0  0  0  0  0  0  0  0  0  0
    2.2539   -2.4750    0.0000 H   0  0  0  0  0  0  0  0  0  0  0  0
    0.0000   -4.1250    0.0000 C   0  0  0  0  0  0  0  0  0  0  0  0
    0.0000   -4.9500    0.0000 C   0  0  0  0  0  0  0  0  0  0  0  0
    0.7145   -5.3625    0.0000 H   0  0  0  0  0  0  0  0  0  0  0  0
   -0.7145   -5.3625    0.0000 C   0  0  0  0  0  0  0  0  0  0  0  0
   -0.7145   -6.1875    0.0000 H   0  0  0  0  0  0  0  0  0  0  0  0
   -1.4289   -4.9500    0.0000 C   0  0  0  0  0  0  0  0  0  0  0  0
   -2.1434   -5.3625    0.0000 Cl  0  0  0  0  0  0  0  0  0  0  0  0
   -1.4289   -4.1250    0.0000 C   0  0  0  0  0  0  0  0  0  0  0  0
   -2.1434   -3.7125    0.0000 Cl  0  0  0  0  0  0  0  0  0  0  0  0
   -0.7145   -3.7125    0.0000 C   0  0  0  0  0  0  0  0  0  0  0  0
   -0.7145   -2.8875    0.0000 H   0  0  0  0  0  0  0  0  0  0  0  0
    1.4289   -3.3000    0.0000 H   0  0  0  0  0  0  0  0  0  0  0  0
    1.4289   -4.9500    0.0000 H   0  0  0  0  0  0  0  0  0  0  0  0
    2.1434   -3.7125    0.0000 H   0  0  0  0  0  0  0  0  0  0  0  0
  1  2  1  0  0  0  0
  2  3  1  0  0  0  0
  3  4  2  0  0  0  0
  3  5  1  0  0  0  0
  5  6  1  0  0  0  0
  6  7  2  0  0  0  0
  7  8  1  0  0  0  0
  7  9  1  0  0  0  0
  9 10  2  0  0  0  0
 10 11  1  0  0  0  0
 10 12  1  0  0  0  0
 12 13  2  0  0  0  0
 13 14  1  0  0  0  0
 14 15  2  0  0  0  0
 15 16  1  0  0  0  0
 16 17  1  0  0  0  0
 16 18  2  0  0  0  0
  6 18  1  0  0  0  0
 12 18  1  0  0  0  0
 15 19  1  0  0  0  0
 14 20  1  0  0  0  0
 13 21  1  0  0  0  0
  5 22  1  0  0  0  0
  2 23  1  0  0  0  0
 23 24  2  0  0  0  0
 24 25  1  0  0  0  0
 24 26  1  0  0  0  0
 26 27  1  0  0  0  0
 26 28  2  0  0  0  0
 28 29  1  0  0  0  0
 28 30  1  0  0  0  0
 30 31  1  0  0  0  0
 30 32  2  0  0  0  0
 23 32  1  0  0  0  0
 32 33  1  0  0  0  0
  2 34  1  0  0  0  0
  1 35  1  0  0  0  0
  1 36  1  0  0  0  0
M  END
> <Potency>
3.38190749273318

> <pIC50>
5.470838276083333

> <Outcome>
Active

> <is_active>
1

$$$$

  Mrv1921 08232120312D          

 59 63  0  0  0  0            999 V2000
   -0.1105   -3.7125    0.0000 C   0  0  0  0  0  0  0  0  0  0  0  0
    0.7145   -3.7125    0.0000 C   0  0  0  0  0  0  0  0  0  0  0  0
    0.7145   -4.5375    0.0000 N   0  0  0  0  0  0  0  0  0  0  0  0
    0.0000   -4.9500    0.0000 C   0  0  0  0  0  0  0  0  0  0  0  0
   -0.7145   -4.5375    0.0000 O   0  0  0  0  0  0  0  0  0  0  0  0
    0.0000   -5.7750    0.0000 C   0  0  0  0  0  0  0  0  0  0  0  0
   -0.7145   -6.1875    0.0000 C   0  0  0  0  0  0  0  0  0  0  0  0
   -0.7145   -7.0125    0.0000 C   0  0  0  0  0  0  0  0  0  0  0  0
    0.0000   -7.4250    0.0000 H   0  0  0  0  0  0  0  0  0  0  0  0
   -1.4289   -7.4250    0.0000 C   0  0  0  0  0  0  0  0  0  0  0  0
   -1.4289   -8.2500    0.0000 H   0  0  0  0  0  0  0  0  0  0  0  0
   -2.1434   -7.0125    0.0000 C   0  0  0  0  0  0  0  0  0  0  0  0
   -2.8579   -7.4250    0.0000 N   0  0  0  0  0  0  0  0  0  0  0  0
   -2.9441   -8.2455    0.0000 C   0  0  0  0  0  0  0  0  0  0  0  0
   -2.3310   -8.7975    0.0000 H   0  0  0  0  0  0  0  0  0  0  0  0
   -3.7511   -8.4170    0.0000 N   0  0  0  0  0  0  0  0  0  0  0  0
   -4.1636   -7.7025    0.0000 N   0  0  0  0  0  0  0  0  0  0  0  0
   -3.6116   -7.0894    0.0000 N   0  0  0  0  0  0  0  0  0  0  0  0
   -2.1434   -6.1875    0.0000 C   0  0  0  0  0  0  0  0  0  0  0  0
   -2.8579   -5.7750    0.0000 H   0  0  0  0  0  0  0  0  0  0  0  0
   -1.4289   -5.7750    0.0000 C   0  0  0  0  0  0  0  0  0  0  0  0
   -1.4289   -4.9500    0.0000 H   0  0  0  0  0  0  0  0  0  0  0  0
    0.4533   -6.4643    0.0000 H   0  0  0  0  0  0  0  0  0  0  0  0
    0.8236   -5.8230    0.0000 H   0  0  0  0  0  0  0  0  0  0  0  0
    1.4289   -4.9500    0.0000 H   0  0  0  0  0  0  0  0  0  0  0  0
    0.7145   -2.8875    0.0000 C   0  0  0  0  0  0  0  0  0  0  0  0
    0.0000   -2.4750    0.0000 O   0  0  0  0  0  0  0  0  0  0  0  0
    1.4289   -2.4750    0.0000 N   0  0  0  0  0  0  0  0  0  0  0  0
    1.4289   -1.6500    0.0000 C   0  0  0  0  0  0  0  0  0  0  0  0
    0.7145   -1.2375    0.0000 C   0  0  0  0  0  0  0  0  0  0  0  0
    0.0000   -1.6500    0.0000 H   0  0  0  0  0  0  0  0  0  0  0  0
    0.7145   -0.4125    0.0000 N   0  0  0  0  0  0  0  0  0  0  0  0
    1.4289    0.0000    0.0000 C   0  0  0  0  0  0  0  0  0  0  0  0
    1.4289    0.8250    0.0000 H   0  0  0  0  0  0  0  0  0  0  0  0
    2.1434   -0.4125    0.0000 C   0  0  0  0  0  0  0  0  0  0  0  0
    2.8579    0.0000    0.0000 C   0  0  0  0  0  0  0  0  0  0  0  0
    3.5724   -0.4125    0.0000 C   0  0  0  0  0  0  0  0  0  0  0  0
    3.5724   -1.2375    0.0000 C   0  0  0  0  0  0  0  0  0  0  0  0
    2.8579   -1.6500    0.0000 C   0  0  0  0  0  0  0  0  0  0  0  0
    3.3155   -2.3365    0.0000 H   0  0  0  0  0  0  0  0  0  0  0  0
    2.1434   -1.2375    0.0000 C   0  0  0  0  0  0  0  0  0  0  0  0
    4.2868   -1.6500    0.0000 H   0  0  0  0  0  0  0  0  0  0  0  0
    4.2868   -0.0000    0.0000 H   0  0  0  0  0  0  0  0  0  0  0  0
    2.8579    0.8250    0.0000 H   0  0  0  0  0  0  0  0  0  0  0  0
    2.1911   -2.1593    0.0000 H   0  0  0  0  0  0  0  0  0  0  0  0
    1.5395   -3.7125    0.0000 C   0  0  0  0  0  0  0  0  0  0  0  0
    1.9520   -2.9980    0.0000 C   0  0  0  0  0  0  0  0  0  0  0  0
    2.3645   -3.7125    0.0000 H   0  0  0  0  0  0  0  0  0  0  0  0
    2.7770   -2.9980    0.0000 C   0  0  0  0  0  0  0  0  0  0  0  0
    2.4227   -2.2529    0.0000 H   0  0  0  0  0  0  0  0  0  0  0  0
    3.1895   -3.7125    0.0000 C   0  0  0  0  0  0  0  0  0  0  0  0
    4.0145   -3.7125    0.0000 Cl  0  0  0  0  0  0  0  0  0  0  0  0
    2.7770   -4.4270    0.0000 C   0  0  0  0  0  0  0  0  0  0  0  0
    3.1895   -5.1414    0.0000 Cl  0  0  0  0  0  0  0  0  0  0  0  0
    1.9520   -4.4270    0.0000 C   0  0  0  0  0  0  0  0  0  0  0  0
    2.2677   -5.1892    0.0000 H   0  0  0  0  0  0  0  0  0  0  0  0
   -0.1105   -2.8875    0.0000 H   0  0  0  0  0  0  0  0  0  0  0  0
   -0.9355   -3.7125    0.0000 H   0  0  0  0  0  0  0  0  0  0  0  0
   -0.1105   -4.5375    0.0000 H   0  0  0  0  0  0  0  0  0  0  0  0
  1  2  1  0  0  0  0
  2  3  1  0  0  0  0
  3  4  1  0  0  0  0
  4  5  2  0  0  0  0
  4  6  1  0  0  0  0
  6  7  1  0  0  0  0
  7  8  2  0  0  0  0
  8  9  1  0  0  0  0
  8 10  1  0  0  0  0
 10 11  1  0  0  0  0
 10 12  2  0  0  0  0
 12 13  1  0  0  0  0
 13 14  1  0  0  0  0
 14 15  1  0  0  0  0
 14 16  2  0  0  0  0
 16 17  1  0  0  0  0
 17 18  2  0  0  0  0
 13 18  1  0  0  0  0
 12 19  1  0  0  0  0
 19 20  1  0  0  0  0
 19 21  2  0  0  0  0
  7 21  1  0  0  0  0
 21 22  1  0  0  0  0
  6 23  1  0  0  0  0
  6 24  1  0  0  0  0
  3 25  1  0  0  0  0
  2 26  1  0  0  0  0
 26 27  2  0  0  0  0
 26 28  1  0  0  0  0
 28 29  1  0  0  0  0
 29 30  2  0  0  0  0
 30 31  1  0  0  0  0
 30 32  1  0  0  0  0
 32 33  2  0  0  0  0
 33 34  1  0  0  0  0
 33 35  1  0  0  0  0
 35 36  2  0  0  0  0
 36 37  1  0  0  0  0
 37 38  2  0  0  0  0
 38 39  1  0  0  0  0
 39 40  1  0  0  0  0
 39 41  2  0  0  0  0
 29 41  1  0  0  0  0
 35 41  1  0  0  0  0
 38 42  1  0  0  0  0
 37 43  1  0  0  0  0
 36 44  1  0  0  0  0
 28 45  1  0  0  0  0
  2 46  1  0  0  0  0
 46 47  2  0  0  0  0
 47 48  1  0  0  0  0
 47 49  1  0  0  0  0
 49 50  1  0  0  0  0
 49 51  2  0  0  0  0
 51 52  1  0  0  0  0
 51 53  1  0  0  0  0
 53 54  1  0  0  0  0
 53 55  2  0  0  0  0
 46 55  1  0  0  0  0
 55 56  1  0  0  0  0
  1 57  1  0  0  0  0
  1 58  1  0  0  0  0
  1 59  1  0  0  0  0
M  END
> <Potency>
4.64232455215391

> <pIC50>
5.333264500613759

> <Outcome>
Active

> <is_active>
1

$$$$

  Mrv1921 08232120312D          

 39 42  0  0  0  0            999 V2000
    2.8579    0.8250    0.0000 O   0  0  0  0  0  0  0  0  0  0  0  0
    3.5724    1.2375    0.0000 C   0  0  0  0  0  0  0  0  0  0  0  0
    3.5724    2.0625    0.0000 C   0  0  0  0  0  0  0  0  0  0  0  0
    3.1190    2.7518    0.0000 H   0  0  0  0  0  0  0  0  0  0  0  0
    2.7488    2.1105    0.0000 H   0  0  0  0  0  0  0  0  0  0  0  0
    4.2868    2.4750    0.0000 C   0  0  0  0  0  0  0  0  0  0  0  0
    4.2868    3.3000    0.0000 C   0  0  0  0  0  0  0  0  0  0  0  0
    5.0013    3.7125    0.0000 O   0  0  0  0  0  0  0  0  0  0  0  0
    3.5724    3.7125    0.0000 N   0  0  0  0  0  0  0  0  0  0  0  0
    3.5724    4.5375    0.0000 C   0  0  0  0  0  0  0  0  0  0  0  0
    2.8579    4.9500    0.0000 C   0  0  0  0  0  0  0  0  0  0  0  0
    2.1434    4.5375    0.0000 H   0  0  0  0  0  0  0  0  0  0  0  0
    2.8579    5.7750    0.0000 N   0  0  0  0  0  0  0  0  0  0  0  0
    3.5724    6.1875    0.0000 C   0  0  0  0  0  0  0  0  0  0  0  0
    3.5724    7.0125    0.0000 H   0  0  0  0  0  0  0  0  0  0  0  0
    4.2868    5.7750    0.0000 C   0  0  0  0  0  0  0  0  0  0  0  0
    5.0013    6.1875    0.0000 C   0  0  0  0  0  0  0  0  0  0  0  0
    5.7158    5.7750    0.0000 C   0  0  0  0  0  0  0  0  0  0  0  0
    5.7158    4.9500    0.0000 C   0  0  0  0  0  0  0  0  0  0  0  0
    5.0013    4.5375    0.0000 C   0  0  0  0  0  0  0  0  0  0  0  0
    4.2868    4.1250    0.0000 H   0  0  0  0  0  0  0  0  0  0  0  0
    4.2868    4.9500    0.0000 C   0  0  0  0  0  0  0  0  0  0  0  0
    6.4302    4.5375    0.0000 H   0  0  0  0  0  0  0  0  0  0  0  0
    6.4302    6.1875    0.0000 H   0  0  0  0  0  0  0  0  0  0  0  0
    5.0013    7.0125    0.0000 H   0  0  0  0  0  0  0  0  0  0  0  0
    2.8579    3.3000    0.0000 H   0  0  0  0  0  0  0  0  0  0  0  0
    5.0013    2.8875    0.0000 H   0  0  0  0  0  0  0  0  0  0  0  0
    5.0013    2.0625    0.0000 C   0  0  0  0  0  0  0  0  0  0  0  0
    5.7158    2.4750    0.0000 C   0  0  0  0  0  0  0  0  0  0  0  0
    6.4302    2.0625    0.0000 C   0  0  0  0  0  0  0  0  0  0  0  0
    7.1447    2.4750    0.0000 Cl  0  0  0  0  0  0  0  0  0  0  0  0
    6.4302    1.2375    0.0000 C   0  0  0  0  0  0  0  0  0  0  0  0
    5.7158    0.8250    0.0000 C   0  0  0  0  0  0  0  0  0  0  0  0
    5.7158    0.0000    0.0000 H   0  0  0  0  0  0  0  0  0  0  0  0
    5.0013    1.2375    0.0000 C   0  0  0  0  0  0  0  0  0  0  0  0
    4.2868    0.8250    0.0000 N   0  0  0  0  0  0  0  0  0  0  0  0
    4.2868    0.0000    0.0000 H   0  0  0  0  0  0  0  0  0  0  0  0
    7.1447    0.8250    0.0000 H   0  0  0  0  0  0  0  0  0  0  0  0
    6.1283    3.1895    0.0000 H   0  0  0  0  0  0  0  0  0  0  0  0
  1  2  2  0  0  0  0
  2  3  1  0  0  0  0
  3  4  1  0  0  0  0
  3  5  1  0  0  0  0
  3  6  1  0  0  0  0
  6  7  1  0  0  0  0
  7  8  2  0  0  0  0
  7  9  1  0  0  0  0
  9 10  1  0  0  0  0
 10 11  2  0  0  0  0
 11 12  1  0  0  0  0
 11 13  1  0  0  0  0
 13 14  2  0  0  0  0
 14 15  1  0  0  0  0
 14 16  1  0  0  0  0
 16 17  2  0  0  0  0
 17 18  1  0  0  0  0
 18 19  2  0  0  0  0
 19 20  1  0  0  0  0
 20 21  1  0  0  0  0
 20 22  2  0  0  0  0
 10 22  1  0  0  0  0
 16 22  1  0  0  0  0
 19 23  1  0  0  0  0
 18 24  1  0  0  0  0
 17 25  1  0  0  0  0
  9 26  1  0  0  0  0
  6 27  1  0  0  0  0
  6 28  1  0  0  0  0
 28 29  2  0  0  0  0
 29 30  1  0  0  0  0
 30 31  1  0  0  0  0
 30 32  2  0  0  0  0
 32 33  1  0  0  0  0
 33 34  1  0  0  0  0
 33 35  2  0  0  0  0
 28 35  1  0  0  0  0
 35 36  1  0  0  0  0
  2 36  1  0  0  0  0
 36 37  1  0  0  0  0
 32 38  1  0  0  0  0
 29 39  1  0  0  0  0
M  END
> <Potency>
0.445777049061976

> <pIC50>
6.350882295035508

> <Outcome>
Active

> <is_active>
1

$$$$

  Mrv1921 08232120312D          

 44 47  0  0  0  0            999 V2000
    5.7158   -1.6500    0.0000 N   0  0  0  0  0  0  0  0  0  0  0  0
    5.0013   -1.2375    0.0000 C   0  0  0  0  0  0  0  0  0  0  0  0
    4.2868   -1.6500    0.0000 O   0  0  0  0  0  0  0  0  0  0  0  0
    5.0013   -0.4125    0.0000 N   0  0  0  0  0  0  0  0  0  0  0  0
    4.2868    0.0000    0.0000 C   0  0  0  0  0  0  0  0  0  0  0  0
    3.4632   -0.0480    0.0000 H   0  0  0  0  0  0  0  0  0  0  0  0
    3.8335   -0.6893    0.0000 H   0  0  0  0  0  0  0  0  0  0  0  0
    4.2868    0.8250    0.0000 C   0  0  0  0  0  0  0  0  0  0  0  0
    3.8335    1.5143    0.0000 H   0  0  0  0  0  0  0  0  0  0  0  0
    3.4632    0.8730    0.0000 H   0  0  0  0  0  0  0  0  0  0  0  0
    5.0013    1.2375    0.0000 C   0  0  0  0  0  0  0  0  0  0  0  0
    5.0013    2.0625    0.0000 C   0  0  0  0  0  0  0  0  0  0  0  0
    4.2868    2.4750    0.0000 O   0  0  0  0  0  0  0  0  0  0  0  0
    5.7158    2.4750    0.0000 N   0  0  0  0  0  0  0  0  0  0  0  0
    5.7158    3.3000    0.0000 C   0  0  0  0  0  0  0  0  0  0  0  0
    5.0013    3.7125    0.0000 C   0  0  0  0  0  0  0  0  0  0  0  0
    4.2868    3.3000    0.0000 H   0  0  0  0  0  0  0  0  0  0  0  0
    5.0013    4.5375    0.0000 N   0  0  0  0  0  0  0  0  0  0  0  0
    5.7158    4.9500    0.0000 C   0  0  0  0  0  0  0  0  0  0  0  0
    5.7158    5.7750    0.0000 H   0  0  0  0  0  0  0  0  0  0  0  0
    6.4302    4.5375    0.0000 C   0  0  0  0  0  0  0  0  0  0  0  0
    7.1447    4.9500    0.0000 C   0  0  0  0  0  0  0  0  0  0  0  0
    7.8592    4.5375    0.0000 C   0  0  0  0  0  0  0  0  0  0  0  0
    7.8592    3.7125    0.0000 C   0  0  0  0  0  0  0  0  0  0  0  0
    7.1447    3.3000    0.0000 C   0  0  0  0  0  0  0  0  0  0  0  0
    7.1447    2.4750    0.0000 H   0  0  0  0  0  0  0  0  0  0  0  0
    6.4302    3.7125    0.0000 C   0  0  0  0  0  0  0  0  0  0  0  0
    8.5737    3.3000    0.0000 H   0  0  0  0  0  0  0  0  0  0  0  0
    8.5737    4.9500    0.0000 H   0  0  0  0  0  0  0  0  0  0  0  0
    7.1447    5.7750    0.0000 H   0  0  0  0  0  0  0  0  0  0  0  0
    6.5408    2.4750    0.0000 H   0  0  0  0  0  0  0  0  0  0  0  0
    5.7158    1.6500    0.0000 H   0  0  0  0  0  0  0  0  0  0  0  0
    5.7158    0.8250    0.0000 C   0  0  0  0  0  0  0  0  0  0  0  0
    6.4302    1.2375    0.0000 C   0  0  0  0  0  0  0  0  0  0  0  0
    7.1447    0.8250    0.0000 C   0  0  0  0  0  0  0  0  0  0  0  0
    7.8592    1.2375    0.0000 Cl  0  0  0  0  0  0  0  0  0  0  0  0
    7.1447    0.0000    0.0000 C   0  0  0  0  0  0  0  0  0  0  0  0
    6.4302   -0.4125    0.0000 C   0  0  0  0  0  0  0  0  0  0  0  0
    5.7158   -0.8250    0.0000 H   0  0  0  0  0  0  0  0  0  0  0  0
    5.7158    0.0000    0.0000 C   0  0  0  0  0  0  0  0  0  0  0  0
    7.8592   -0.4125    0.0000 H   0  0  0  0  0  0  0  0  0  0  0  0
    6.8427    1.9520    0.0000 H   0  0  0  0  0  0  0  0  0  0  0  0
    5.7158   -2.4750    0.0000 H   0  0  0  0  0  0  0  0  0  0  0  0
    6.4302   -1.2375    0.0000 H   0  0  0  0  0  0  0  0  0  0  0  0
  1  2  1  0  0  0  0
  2  3  2  0  0  0  0
  2  4  1  0  0  0  0
  4  5  1  0  0  0  0
  5  6  1  0  0  0  0
  5  7  1  0  0  0  0
  5  8  1  0  0  0  0
  8  9  1  0  0  0  0
  8 10  1  0  0  0  0
  8 11  1  0  0  0  0
 11 12  1  0  0  0  0
 12 13  2  0  0  0  0
 12 14  1  0  0  0  0
 14 15  1  0  0  0  0
 15 16  2  0  0  0  0
 16 17  1  0  0  0  0
 16 18  1  0  0  0  0
 18 19  2  0  0  0  0
 19 20  1  0  0  0  0
 19 21  1  0  0  0  0
 21 22  2  0  0  0  0
 22 23  1  0  0  0  0
 23 24  2  0  0  0  0
 24 25  1  0  0  0  0
 25 26  1  0  0  0  0
 25 27  2  0  0  0  0
 15 27  1  0  0  0  0
 21 27  1  0  0  0  0
 24 28  1  0  0  0  0
 23 29  1  0  0  0  0
 22 30  1  0  0  0  0
 14 31  1  0  0  0  0
 11 32  1  0  0  0  0
 11 33  1  0  0  0  0
 33 34  2  0  0  0  0
 34 35  1  0  0  0  0
 35 36  1  0  0  0  0
 35 37  2  0  0  0  0
 37 38  1  0  0  0  0
 38 39  1  0  0  0  0
 38 40  2  0  0  0  0
  4 40  1  0  0  0  0
 33 40  1  0  0  0  0
 37 41  1  0  0  0  0
 34 42  1  0  0  0  0
  1 43  1  0  0  0  0
  1 44  1  0  0  0  0
M  END
> <Potency>
0.998370717309451

> <pIC50>
6.000708165539677

> <Outcome>
Active

> <is_active>
1

$$$$

  Mrv1921 08232120312D          

 47 49  0  0  0  0            999 V2000
    3.5724   -1.2375    0.0000 C   0  0  0  0  0  0  0  0  0  0  0  0
    4.2868   -0.8250    0.0000 O   0  0  0  0  0  0  0  0  0  0  0  0
    4.2868    0.0000    0.0000 C   0  0  0  0  0  0  0  0  0  0  0  0
    3.5724    0.4125    0.0000 C   0  0  0  0  0  0  0  0  0  0  0  0
    2.8579    0.0000    0.0000 H   0  0  0  0  0  0  0  0  0  0  0  0
    3.5724    1.2375    0.0000 C   0  0  0  0  0  0  0  0  0  0  0  0
    2.8579    1.6500    0.0000 H   0  0  0  0  0  0  0  0  0  0  0  0
    4.2868    1.6500    0.0000 C   0  0  0  0  0  0  0  0  0  0  0  0
    4.2868    2.4750    0.0000 Cl  0  0  0  0  0  0  0  0  0  0  0  0
    5.0013    1.2375    0.0000 C   0  0  0  0  0  0  0  0  0  0  0  0
    5.7158    1.6500    0.0000 H   0  0  0  0  0  0  0  0  0  0  0  0
    5.0013    0.4125    0.0000 C   0  0  0  0  0  0  0  0  0  0  0  0
    5.7158    0.0000    0.0000 O   0  0  0  0  0  0  0  0  0  0  0  0
    6.4302    0.4125    0.0000 C   0  0  0  0  0  0  0  0  0  0  0  0
    7.1447    0.0000    0.0000 C   0  0  0  0  0  0  0  0  0  0  0  0
    7.8592    0.4125    0.0000 N   0  0  0  0  0  0  0  0  0  0  0  0
    8.5737    0.0000    0.0000 C   0  0  0  0  0  0  0  0  0  0  0  0
    8.5737   -0.8250    0.0000 O   0  0  0  0  0  0  0  0  0  0  0  0
    9.2881    0.4125    0.0000 C   0  0  0  0  0  0  0  0  0  0  0  0
    9.2881    1.2375    0.0000 C   0  0  0  0  0  0  0  0  0  0  0  0
    8.5737    1.6500    0.0000 H   0  0  0  0  0  0  0  0  0  0  0  0
   10.0026    1.6500    0.0000 C   0  0  0  0  0  0  0  0  0  0  0  0
   10.0026    2.4750    0.0000 O   0  0  0  0  0  0  0  0  0  0  0  0
   10.7171    1.2375    0.0000 N   0  0  0  0  0  0  0  0  0  0  0  0
   11.4315    1.6500    0.0000 H   0  0  0  0  0  0  0  0  0  0  0  0
   10.7171    0.4125    0.0000 C   0  0  0  0  0  0  0  0  0  0  0  0
   11.4315    0.0000    0.0000 C   0  0  0  0  0  0  0  0  0  0  0  0
   11.4315   -0.8250    0.0000 C   0  0  0  0  0  0  0  0  0  0  0  0
   10.7171   -1.2375    0.0000 C   0  0  0  0  0  0  0  0  0  0  0  0
   10.0026   -0.8250    0.0000 C   0  0  0  0  0  0  0  0  0  0  0  0
    9.2881   -1.2375    0.0000 O   0  0  0  0  0  0  0  0  0  0  0  0
    9.2881   -2.0625    0.0000 C   0  0  0  0  0  0  0  0  0  0  0  0
    8.4631   -2.0625    0.0000 H   0  0  0  0  0  0  0  0  0  0  0  0
    9.2881   -2.8875    0.0000 H   0  0  0  0  0  0  0  0  0  0  0  0
   10.1131   -2.0625    0.0000 H   0  0  0  0  0  0  0  0  0  0  0  0
   10.0026    0.0000    0.0000 C   0  0  0  0  0  0  0  0  0  0  0  0
   10.7171   -2.0625    0.0000 H   0  0  0  0  0  0  0  0  0  0  0  0
   12.1460   -1.2375    0.0000 H   0  0  0  0  0  0  0  0  0  0  0  0
   12.1460    0.4125    0.0000 H   0  0  0  0  0  0  0  0  0  0  0  0
    7.8592    1.2375    0.0000 H   0  0  0  0  0  0  0  0  0  0  0  0
    6.7745   -0.7372    0.0000 H   0  0  0  0  0  0  0  0  0  0  0  0
    7.5150   -0.7372    0.0000 H   0  0  0  0  0  0  0  0  0  0  0  0
    6.8005    1.1497    0.0000 H   0  0  0  0  0  0  0  0  0  0  0  0
    6.0600    1.1497    0.0000 H   0  0  0  0  0  0  0  0  0  0  0  0
    3.1599   -0.5230    0.0000 H   0  0  0  0  0  0  0  0  0  0  0  0
    2.8579   -1.6500    0.0000 H   0  0  0  0  0  0  0  0  0  0  0  0
    3.9849   -1.9520    0.0000 H   0  0  0  0  0  0  0  0  0  0  0  0
  1  2  1  0  0  0  0
  2  3  1  0  0  0  0
  3  4  2  0  0  0  0
  4  5  1  0  0  0  0
  4  6  1  0  0  0  0
  6  7  1  0  0  0  0
  6  8  2  0  0  0  0
  8  9  1  0  0  0  0
  8 10  1  0  0  0  0
 10 11  1  0  0  0  0
 10 12  2  0  0  0  0
  3 12  1  0  0  0  0
 12 13  1  0  0  0  0
 13 14  1  0  0  0  0
 14 15  1  0  0  0  0
 15 16  1  0  0  0  0
 16 17  1  0  0  0  0
 17 18  2  0  0  0  0
 17 19  1  0  0  0  0
 19 20  4  0  0  0  0
 20 21  1  0  0  0  0
 20 22  4  0  0  0  0
 22 23  2  0  0  0  0
 22 24  4  0  0  0  0
 24 25  1  0  0  0  0
 24 26  4  0  0  0  0
 26 27  4  0  0  0  0
 27 28  4  0  0  0  0
 28 29  4  0  0  0  0
 29 30  4  0  0  0  0
 30 31  1  0  0  0  0
 31 32  1  0  0  0  0
 32 33  1  0  0  0  0
 32 34  1  0  0  0  0
 32 35  1  0  0  0  0
 30 36  4  0  0  0  0
 19 36  4  0  0  0  0
 26 36  4  0  0  0  0
 29 37  1  0  0  0  0
 28 38  1  0  0  0  0
 27 39  1  0  0  0  0
 16 40  1  0  0  0  0
 15 41  1  0  0  0  0
 15 42  1  0  0  0  0
 14 43  1  0  0  0  0
 14 44  1  0  0  0  0
  1 45  1  0  0  0  0
  1 46  1  0  0  0  0
  1 47  1  0  0  0  0
M  END
> <Potency>
0.873922371600277

> <pIC50>
6.05852714297537

> <Outcome>
Active

> <is_active>
1

$$$$

  Mrv1921 08232120312D          

 42 45  0  0  0  0            999 V2000
    2.1434   -2.8875    0.0000 O   0  0  0  0  0  0  0  0  0  0  0  0
    1.4289   -2.4750    0.0000 C   0  0  0  0  0  0  0  0  0  0  0  0
    1.4289   -1.6500    0.0000 C   0  0  0  0  0  0  0  0  0  0  0  0
    0.7145   -1.2375    0.0000 C   0  0  0  0  0  0  0  0  0  0  0  0
    0.0000   -1.6500    0.0000 H   0  0  0  0  0  0  0  0  0  0  0  0
    0.7145   -0.4125    0.0000 N   0  0  0  0  0  0  0  0  0  0  0  0
    1.4289    0.0000    0.0000 C   0  0  0  0  0  0  0  0  0  0  0  0
    1.4289    0.8250    0.0000 H   0  0  0  0  0  0  0  0  0  0  0  0
    2.1434   -0.4125    0.0000 C   0  0  0  0  0  0  0  0  0  0  0  0
    2.8579    0.0000    0.0000 C   0  0  0  0  0  0  0  0  0  0  0  0
    3.5724   -0.4125    0.0000 C   0  0  0  0  0  0  0  0  0  0  0  0
    3.5724   -1.2375    0.0000 C   0  0  0  0  0  0  0  0  0  0  0  0
    2.8579   -1.6500    0.0000 C   0  0  0  0  0  0  0  0  0  0  0  0
    2.8579   -2.4750    0.0000 H   0  0  0  0  0  0  0  0  0  0  0  0
    2.1434   -1.2375    0.0000 C   0  0  0  0  0  0  0  0  0  0  0  0
    4.2868   -1.6500    0.0000 H   0  0  0  0  0  0  0  0  0  0  0  0
    4.2868   -0.0000    0.0000 H   0  0  0  0  0  0  0  0  0  0  0  0
    2.8579    0.8250    0.0000 H   0  0  0  0  0  0  0  0  0  0  0  0
    0.7145   -2.8875    0.0000 N   0  0  0  0  0  0  0  0  0  0  0  0
    0.7145   -3.7125    0.0000 C   0  0  0  0  0  0  0  0  0  0  0  0
    1.1678   -4.4018    0.0000 H   0  0  0  0  0  0  0  0  0  0  0  0
    1.5381   -3.7605    0.0000 H   0  0  0  0  0  0  0  0  0  0  0  0
    0.0000   -4.1250    0.0000 C   0  0  0  0  0  0  0  0  0  0  0  0
   -0.3703   -4.8622    0.0000 H   0  0  0  0  0  0  0  0  0  0  0  0
    0.3703   -4.8622    0.0000 H   0  0  0  0  0  0  0  0  0  0  0  0
   -0.7145   -3.7125    0.0000 N   0  0  0  0  0  0  0  0  0  0  0  0
   -1.4289   -4.1250    0.0000 C   0  0  0  0  0  0  0  0  0  0  0  0
   -1.4289   -4.9500    0.0000 C   0  0  0  0  0  0  0  0  0  0  0  0
   -0.7145   -5.3625    0.0000 H   0  0  0  0  0  0  0  0  0  0  0  0
   -2.1434   -5.3625    0.0000 C   0  0  0  0  0  0  0  0  0  0  0  0
   -2.1434   -6.1875    0.0000 H   0  0  0  0  0  0  0  0  0  0  0  0
   -2.8579   -4.9500    0.0000 C   0  0  0  0  0  0  0  0  0  0  0  0
   -3.5724   -5.3625    0.0000 H   0  0  0  0  0  0  0  0  0  0  0  0
   -2.8579   -4.1250    0.0000 C   0  0  0  0  0  0  0  0  0  0  0  0
   -3.5724   -3.7125    0.0000 Cl  0  0  0  0  0  0  0  0  0  0  0  0
   -2.1434   -3.7125    0.0000 C   0  0  0  0  0  0  0  0  0  0  0  0
   -2.1434   -2.8875    0.0000 H   0  0  0  0  0  0  0  0  0  0  0  0
   -0.7145   -2.8875    0.0000 C   0  0  0  0  0  0  0  0  0  0  0  0
   -1.4289   -2.4750    0.0000 O   0  0  0  0  0  0  0  0  0  0  0  0
    0.0000   -2.4750    0.0000 C   0  0  0  0  0  0  0  0  0  0  0  0
    0.7145   -2.0625    0.0000 H   0  0  0  0  0  0  0  0  0  0  0  0
    0.0000   -3.3000    0.0000 H   0  0  0  0  0  0  0  0  0  0  0  0
  1  2  2  0  0  0  0
  2  3  1  0  0  0  0
  3  4  2  0  0  0  0
  4  5  1  0  0  0  0
  4  6  1  0  0  0  0
  6  7  2  0  0  0  0
  7  8  1  0  0  0  0
  7  9  1  0  0  0  0
  9 10  2  0  0  0  0
 10 11  1  0  0  0  0
 11 12  2  0  0  0  0
 12 13  1  0  0  0  0
 13 14  1  0  0  0  0
 13 15  2  0  0  0  0
  3 15  1  0  0  0  0
  9 15  1  0  0  0  0
 12 16  1  0  0  0  0
 11 17  1  0  0  0  0
 10 18  1  0  0  0  0
  2 19  1  0  0  0  0
 19 20  1  0  0  0  0
 20 21  1  0  0  0  0
 20 22  1  0  0  0  0
 20 23  1  0  0  0  0
 23 24  1  0  0  0  0
 23 25  1  0  0  0  0
 23 26  1  0  0  0  0
 26 27  1  0  0  0  0
 27 28  2  0  0  0  0
 28 29  1  0  0  0  0
 28 30  1  0  0  0  0
 30 31  1  0  0  0  0
 30 32  2  0  0  0  0
 32 33  1  0  0  0  0
 32 34  1  0  0  0  0
 34 35  1  0  0  0  0
 34 36  2  0  0  0  0
 27 36  1  0  0  0  0
 36 37  1  0  0  0  0
 26 38  1  0  0  0  0
 38 39  2  0  0  0  0
 38 40  1  0  0  0  0
 19 40  1  0  0  0  0
 40 41  1  0  0  0  0
 40 42  1  0  0  0  0
M  END
> <Potency>
9.18999391075753

> <pIC50>
5.036684776375073

> <Outcome>
Active

> <is_active>
1

$$$$

  Mrv1921 08232120312D          

 70 74  0  0  0  0            999 V2000
    1.7776    3.0757    0.0000 C   0  0  0  0  0  0  0  0  0  0  0  0
    2.3177    2.4520    0.0000 C   0  0  0  0  0  0  0  0  0  0  0  0
    1.6941    1.9120    0.0000 C   0  0  0  0  0  0  0  0  0  0  0  0
    0.9112    1.6516    0.0000 H   0  0  0  0  0  0  0  0  0  0  0  0
    1.6350    1.0891    0.0000 H   0  0  0  0  0  0  0  0  0  0  0  0
    2.4317    1.5425    0.0000 H   0  0  0  0  0  0  0  0  0  0  0  0
    2.9413    2.9921    0.0000 C   0  0  0  0  0  0  0  0  0  0  0  0
    3.2017    2.2093    0.0000 H   0  0  0  0  0  0  0  0  0  0  0  0
    3.7642    2.9331    0.0000 H   0  0  0  0  0  0  0  0  0  0  0  0
    3.3108    3.7298    0.0000 H   0  0  0  0  0  0  0  0  0  0  0  0
    2.8578    1.8284    0.0000 C   0  0  0  0  0  0  0  0  0  0  0  0
    3.6679    1.9843    0.0000 C   0  0  0  0  0  0  0  0  0  0  0  0
    4.4545    2.2331    0.0000 H   0  0  0  0  0  0  0  0  0  0  0  0
    4.2080    1.3607    0.0000 C   0  0  0  0  0  0  0  0  0  0  0  0
    4.7615    0.7489    0.0000 H   0  0  0  0  0  0  0  0  0  0  0  0
    3.9380    0.5811    0.0000 C   0  0  0  0  0  0  0  0  0  0  0  0
    4.4781   -0.0425    0.0000 N   0  0  0  0  0  0  0  0  0  0  0  0
    4.2080   -0.8221    0.0000 C   0  0  0  0  0  0  0  0  0  0  0  0
    4.7481   -1.4457    0.0000 O   0  0  0  0  0  0  0  0  0  0  0  0
    3.3979   -0.9780    0.0000 C   0  0  0  0  0  0  0  0  0  0  0  0
    3.0478   -1.7250    0.0000 C   0  0  0  0  0  0  0  0  0  0  0  0
    3.4465   -2.4473    0.0000 H   0  0  0  0  0  0  0  0  0  0  0  0
    2.2292   -1.6230    0.0000 C   0  0  0  0  0  0  0  0  0  0  0  0
    1.6654   -2.2253    0.0000 H   0  0  0  0  0  0  0  0  0  0  0  0
    2.0733   -0.8128    0.0000 C   0  0  0  0  0  0  0  0  0  0  0  0
    1.3262   -0.4628    0.0000 H   0  0  0  0  0  0  0  0  0  0  0  0
    2.7956   -0.4142    0.0000 O   0  0  0  0  0  0  0  0  0  0  0  0
    5.2882    0.1134    0.0000 C   0  0  0  0  0  0  0  0  0  0  0  0
    5.8283   -0.5103    0.0000 C   0  0  0  0  0  0  0  0  0  0  0  0
    5.5582   -1.2898    0.0000 O   0  0  0  0  0  0  0  0  0  0  0  0
    6.6384   -0.3543    0.0000 N   0  0  0  0  0  0  0  0  0  0  0  0
    7.1785   -0.9780    0.0000 C   0  0  0  0  0  0  0  0  0  0  0  0
    7.9886   -0.8221    0.0000 C   0  0  0  0  0  0  0  0  0  0  0  0
    8.5287   -1.4457    0.0000 C   0  0  0  0  0  0  0  0  0  0  0  0
    9.3389   -1.2898    0.0000 C   0  0  0  0  0  0  0  0  0  0  0  0
    9.6089   -0.5103    0.0000 H   0  0  0  0  0  0  0  0  0  0  0  0
    9.8790   -1.9134    0.0000 C   0  0  0  0  0  0  0  0  0  0  0  0
   10.6891   -1.7575    0.0000 H   0  0  0  0  0  0  0  0  0  0  0  0
    9.6089   -2.6930    0.0000 C   0  0  0  0  0  0  0  0  0  0  0  0
   10.1490   -3.3166    0.0000 H   0  0  0  0  0  0  0  0  0  0  0  0
    8.7988   -2.8489    0.0000 C   0  0  0  0  0  0  0  0  0  0  0  0
    8.5287   -3.6285    0.0000 F   0  0  0  0  0  0  0  0  0  0  0  0
    8.2587   -2.2253    0.0000 C   0  0  0  0  0  0  0  0  0  0  0  0
    7.4485   -2.3812    0.0000 H   0  0  0  0  0  0  0  0  0  0  0  0
    8.5798   -0.2466    0.0000 H   0  0  0  0  0  0  0  0  0  0  0  0
    7.8801   -0.0042    0.0000 H   0  0  0  0  0  0  0  0  0  0  0  0
    6.5873   -1.5534    0.0000 H   0  0  0  0  0  0  0  0  0  0  0  0
    7.2870   -1.7958    0.0000 H   0  0  0  0  0  0  0  0  0  0  0  0
    6.9085    0.4252    0.0000 H   0  0  0  0  0  0  0  0  0  0  0  0
    5.5582    0.8929    0.0000 C   0  0  0  0  0  0  0  0  0  0  0  0
    5.0863    1.5696    0.0000 S   0  0  0  0  0  0  0  0  0  0  0  0
    5.5840    2.2276    0.0000 N   0  0  0  0  0  0  0  0  0  0  0  0
    6.3636    1.9575    0.0000 C   0  0  0  0  0  0  0  0  0  0  0  0
    7.0859    2.3561    0.0000 C   0  0  0  0  0  0  0  0  0  0  0  0
    7.7922    1.9299    0.0000 C   0  0  0  0  0  0  0  0  0  0  0  0
    7.7763    1.1051    0.0000 C   0  0  0  0  0  0  0  0  0  0  0  0
    7.0540    0.7065    0.0000 C   0  0  0  0  0  0  0  0  0  0  0  0
    7.6451    0.1309    0.0000 H   0  0  0  0  0  0  0  0  0  0  0  0
    6.3476    1.1327    0.0000 C   0  0  0  0  0  0  0  0  0  0  0  0
    8.4827    0.6789    0.0000 H   0  0  0  0  0  0  0  0  0  0  0  0
    8.5145    2.3286    0.0000 H   0  0  0  0  0  0  0  0  0  0  0  0
    7.1018    3.1810    0.0000 H   0  0  0  0  0  0  0  0  0  0  0  0
    5.0181   -0.6662    0.0000 H   0  0  0  0  0  0  0  0  0  0  0  0
    3.1278    0.4252    0.0000 C   0  0  0  0  0  0  0  0  0  0  0  0
    2.3145    0.2869    0.0000 H   0  0  0  0  0  0  0  0  0  0  0  0
    2.5877    1.0489    0.0000 C   0  0  0  0  0  0  0  0  0  0  0  0
    3.3979    1.2048    0.0000 H   0  0  0  0  0  0  0  0  0  0  0  0
    2.4013    3.6158    0.0000 H   0  0  0  0  0  0  0  0  0  0  0  0
    1.2375    3.6993    0.0000 H   0  0  0  0  0  0  0  0  0  0  0  0
    1.1540    2.5356    0.0000 H   0  0  0  0  0  0  0  0  0  0  0  0
  1  2  1  0  0  0  0
  2  3  1  0  0  0  0
  3  4  1  0  0  0  0
  3  5  1  0  0  0  0
  3  6  1  0  0  0  0
  2  7  1  0  0  0  0
  7  8  1  0  0  0  0
  7  9  1  0  0  0  0
  7 10  1  0  0  0  0
  2 11  1  0  0  0  0
 11 12  2  0  0  0  0
 12 13  1  0  0  0  0
 12 14  1  0  0  0  0
 14 15  1  0  0  0  0
 14 16  2  0  0  0  0
 16 17  1  0  0  0  0
 17 18  1  0  0  0  0
 18 19  2  0  0  0  0
 18 20  1  0  0  0  0
 20 21  2  0  0  0  0
 21 22  1  0  0  0  0
 21 23  1  0  0  0  0
 23 24  1  0  0  0  0
 23 25  2  0  0  0  0
 25 26  1  0  0  0  0
 25 27  1  0  0  0  0
 20 27  1  0  0  0  0
 17 28  1  0  0  0  0
 28 29  1  0  0  0  0
 29 30  2  0  0  0  0
 29 31  1  0  0  0  0
 31 32  1  0  0  0  0
 32 33  1  0  0  0  0
 33 34  1  0  0  0  0
 34 35  2  0  0  0  0
 35 36  1  0  0  0  0
 35 37  1  0  0  0  0
 37 38  1  0  0  0  0
 37 39  2  0  0  0  0
 39 40  1  0  0  0  0
 39 41  1  0  0  0  0
 41 42  1  0  0  0  0
 41 43  2  0  0  0  0
 34 43  1  0  0  0  0
 43 44  1  0  0  0  0
 33 45  1  0  0  0  0
 33 46  1  0  0  0  0
 32 47  1  0  0  0  0
 32 48  1  0  0  0  0
 31 49  1  0  0  0  0
 28 50  1  0  0  0  0
 50 51  1  0  0  0  0
 51 52  1  0  0  0  0
 52 53  2  0  0  0  0
 53 54  1  0  0  0  0
 54 55  2  0  0  0  0
 55 56  1  0  0  0  0
 56 57  2  0  0  0  0
 57 58  1  0  0  0  0
 57 59  1  0  0  0  0
 50 59  2  0  0  0  0
 53 59  1  0  0  0  0
 56 60  1  0  0  0  0
 55 61  1  0  0  0  0
 54 62  1  0  0  0  0
 28 63  1  0  0  0  0
 16 64  1  0  0  0  0
 64 65  1  0  0  0  0
 64 66  2  0  0  0  0
 11 66  1  0  0  0  0
 66 67  1  0  0  0  0
  1 68  1  0  0  0  0
  1 69  1  0  0  0  0
  1 70  1  0  0  0  0
M  END
> <Potency>
5.33429769001942

> <pIC50>
5.272922751389826

> <Outcome>
Active

> <is_active>
1

$$$$

  Mrv1921 08232120312D          

 67 70  0  0  0  0            999 V2000
   -2.4304    1.4228    0.0000 C   0  0  0  0  0  0  0  0  0  0  0  0
   -1.8903    0.7991    0.0000 C   0  0  0  0  0  0  0  0  0  0  0  0
   -2.5140    0.2590    0.0000 C   0  0  0  0  0  0  0  0  0  0  0  0
   -3.2968   -0.0013    0.0000 H   0  0  0  0  0  0  0  0  0  0  0  0
   -2.5730   -0.5639    0.0000 H   0  0  0  0  0  0  0  0  0  0  0  0
   -1.7763   -0.1105    0.0000 H   0  0  0  0  0  0  0  0  0  0  0  0
   -1.2667    1.3392    0.0000 C   0  0  0  0  0  0  0  0  0  0  0  0
   -1.0064    0.5564    0.0000 H   0  0  0  0  0  0  0  0  0  0  0  0
   -0.4438    1.2801    0.0000 H   0  0  0  0  0  0  0  0  0  0  0  0
   -0.8972    2.0768    0.0000 H   0  0  0  0  0  0  0  0  0  0  0  0
   -1.3502    0.1755    0.0000 C   0  0  0  0  0  0  0  0  0  0  0  0
   -0.5401    0.3314    0.0000 C   0  0  0  0  0  0  0  0  0  0  0  0
    0.2465    0.5801    0.0000 H   0  0  0  0  0  0  0  0  0  0  0  0
    0.0000   -0.2923    0.0000 C   0  0  0  0  0  0  0  0  0  0  0  0
    0.5401   -0.9159    0.0000 H   0  0  0  0  0  0  0  0  0  0  0  0
   -0.2700   -1.0718    0.0000 C   0  0  0  0  0  0  0  0  0  0  0  0
    0.2700   -1.6954    0.0000 N   0  0  0  0  0  0  0  0  0  0  0  0
    0.0000   -2.4750    0.0000 C   0  0  0  0  0  0  0  0  0  0  0  0
    0.5401   -3.0986    0.0000 O   0  0  0  0  0  0  0  0  0  0  0  0
   -0.8101   -2.6309    0.0000 C   0  0  0  0  0  0  0  0  0  0  0  0
   -1.1602   -3.3780    0.0000 N   0  0  0  0  0  0  0  0  0  0  0  0
   -1.9788   -3.2759    0.0000 C   0  0  0  0  0  0  0  0  0  0  0  0
   -2.5426   -3.8782    0.0000 H   0  0  0  0  0  0  0  0  0  0  0  0
   -2.1348   -2.4658    0.0000 C   0  0  0  0  0  0  0  0  0  0  0  0
   -2.8818   -2.1157    0.0000 H   0  0  0  0  0  0  0  0  0  0  0  0
   -1.4125   -2.0671    0.0000 N   0  0  0  0  0  0  0  0  0  0  0  0
   -2.0318   -1.5221    0.0000 H   0  0  0  0  0  0  0  0  0  0  0  0
    1.0802   -1.5395    0.0000 C   0  0  0  0  0  0  0  0  0  0  0  0
    1.6203   -2.1632    0.0000 C   0  0  0  0  0  0  0  0  0  0  0  0
    1.3502   -2.9427    0.0000 O   0  0  0  0  0  0  0  0  0  0  0  0
    2.4304   -2.0073    0.0000 N   0  0  0  0  0  0  0  0  0  0  0  0
    2.9705   -2.6309    0.0000 C   0  0  0  0  0  0  0  0  0  0  0  0
    3.7806   -2.4750    0.0000 C   0  0  0  0  0  0  0  0  0  0  0  0
    4.3207   -3.0986    0.0000 C   0  0  0  0  0  0  0  0  0  0  0  0
    5.1308   -2.9427    0.0000 C   0  0  0  0  0  0  0  0  0  0  0  0
    5.4009   -2.1632    0.0000 H   0  0  0  0  0  0  0  0  0  0  0  0
    5.6709   -3.5664    0.0000 C   0  0  0  0  0  0  0  0  0  0  0  0
    6.4811   -3.4105    0.0000 H   0  0  0  0  0  0  0  0  0  0  0  0
    5.4009   -4.3459    0.0000 C   0  0  0  0  0  0  0  0  0  0  0  0
    5.9410   -4.9696    0.0000 H   0  0  0  0  0  0  0  0  0  0  0  0
    4.5908   -4.5018    0.0000 C   0  0  0  0  0  0  0  0  0  0  0  0
    4.3207   -5.2814    0.0000 F   0  0  0  0  0  0  0  0  0  0  0  0
    4.0507   -3.8782    0.0000 C   0  0  0  0  0  0  0  0  0  0  0  0
    3.2405   -4.0341    0.0000 H   0  0  0  0  0  0  0  0  0  0  0  0
    4.3718   -1.8996    0.0000 H   0  0  0  0  0  0  0  0  0  0  0  0
    3.6721   -1.6572    0.0000 H   0  0  0  0  0  0  0  0  0  0  0  0
    2.3793   -3.2063    0.0000 H   0  0  0  0  0  0  0  0  0  0  0  0
    3.0790   -3.4487    0.0000 H   0  0  0  0  0  0  0  0  0  0  0  0
    2.7004   -1.2277    0.0000 H   0  0  0  0  0  0  0  0  0  0  0  0
    1.3502   -0.7600    0.0000 C   0  0  0  0  0  0  0  0  0  0  0  0
    0.8101   -0.1363    0.0000 C   0  0  0  0  0  0  0  0  0  0  0  0
    1.6203    0.0196    0.0000 H   0  0  0  0  0  0  0  0  0  0  0  0
    1.0802    0.6432    0.0000 C   0  0  0  0  0  0  0  0  0  0  0  0
    0.9709    1.4609    0.0000 H   0  0  0  0  0  0  0  0  0  0  0  0
    1.8903    0.7991    0.0000 C   0  0  0  0  0  0  0  0  0  0  0  0
    2.1604    1.5787    0.0000 H   0  0  0  0  0  0  0  0  0  0  0  0
    2.4304    0.1755    0.0000 N   0  0  0  0  0  0  0  0  0  0  0  0
    2.1604   -0.6041    0.0000 C   0  0  0  0  0  0  0  0  0  0  0  0
    1.8903   -1.3836    0.0000 H   0  0  0  0  0  0  0  0  0  0  0  0
    0.8101   -2.3191    0.0000 H   0  0  0  0  0  0  0  0  0  0  0  0
   -1.0802   -1.2277    0.0000 C   0  0  0  0  0  0  0  0  0  0  0  0
   -1.8935   -1.3660    0.0000 H   0  0  0  0  0  0  0  0  0  0  0  0
   -1.6203   -0.6041    0.0000 C   0  0  0  0  0  0  0  0  0  0  0  0
   -0.8101   -0.4482    0.0000 H   0  0  0  0  0  0  0  0  0  0  0  0
   -1.8068    1.9628    0.0000 H   0  0  0  0  0  0  0  0  0  0  0  0
   -2.9705    2.0464    0.0000 H   0  0  0  0  0  0  0  0  0  0  0  0
   -3.0540    0.8827    0.0000 H   0  0  0  0  0  0  0  0  0  0  0  0
  1  2  1  0  0  0  0
  2  3  1  0  0  0  0
  3  4  1  0  0  0  0
  3  5  1  0  0  0  0
  3  6  1  0  0  0  0
  2  7  1  0  0  0  0
  7  8  1  0  0  0  0
  7  9  1  0  0  0  0
  7 10  1  0  0  0  0
  2 11  1  0  0  0  0
 11 12  2  0  0  0  0
 12 13  1  0  0  0  0
 12 14  1  0  0  0  0
 14 15  1  0  0  0  0
 14 16  2  0  0  0  0
 16 17  1  0  0  0  0
 17 18  1  0  0  0  0
 18 19  2  0  0  0  0
 18 20  1  0  0  0  0
 20 21  2  0  0  0  0
 21 22  1  0  0  0  0
 22 23  1  0  0  0  0
 22 24  2  0  0  0  0
 24 25  1  0  0  0  0
 24 26  1  0  0  0  0
 20 26  1  0  0  0  0
 26 27  1  0  0  0  0
 17 28  1  0  0  0  0
 28 29  1  0  0  0  0
 29 30  2  0  0  0  0
 29 31  1  0  0  0  0
 31 32  1  0  0  0  0
 32 33  1  0  0  0  0
 33 34  1  0  0  0  0
 34 35  2  0  0  0  0
 35 36  1  0  0  0  0
 35 37  1  0  0  0  0
 37 38  1  0  0  0  0
 37 39  2  0  0  0  0
 39 40  1  0  0  0  0
 39 41  1  0  0  0  0
 41 42  1  0  0  0  0
 41 43  2  0  0  0  0
 34 43  1  0  0  0  0
 43 44  1  0  0  0  0
 33 45  1  0  0  0  0
 33 46  1  0  0  0  0
 32 47  1  0  0  0  0
 32 48  1  0  0  0  0
 31 49  1  0  0  0  0
 28 50  1  0  0  0  0
 50 51  2  0  0  0  0
 51 52  1  0  0  0  0
 51 53  1  0  0  0  0
 53 54  1  0  0  0  0
 53 55  2  0  0  0  0
 55 56  1  0  0  0  0
 55 57  1  0  0  0  0
 57 58  2  0  0  0  0
 50 58  1  0  0  0  0
 58 59  1  0  0  0  0
 28 60  1  0  0  0  0
 16 61  1  0  0  0  0
 61 62  1  0  0  0  0
 61 63  2  0  0  0  0
 11 63  1  0  0  0  0
 63 64  1  0  0  0  0
  1 65  1  0  0  0  0
  1 66  1  0  0  0  0
  1 67  1  0  0  0  0
M  END
> <Potency>
5.2855279530574

> <pIC50>
5.276911626020168

> <Outcome>
Active

> <is_active>
1

$$$$

  Mrv1921 08232120312D          

 39 42  0  0  0  0            999 V2000
    0.0000   -2.4750    0.0000 O   0  0  0  0  0  0  0  0  0  0  0  0
    0.7145   -2.8875    0.0000 C   0  0  0  0  0  0  0  0  0  0  0  0
    0.7145   -3.7125    0.0000 C   0  0  0  0  0  0  0  0  0  0  0  0
    0.0000   -4.1250    0.0000 C   0  0  0  0  0  0  0  0  0  0  0  0
    0.0000   -4.9500    0.0000 C   0  0  0  0  0  0  0  0  0  0  0  0
    0.7145   -5.3625    0.0000 H   0  0  0  0  0  0  0  0  0  0  0  0
   -0.7145   -5.3625    0.0000 C   0  0  0  0  0  0  0  0  0  0  0  0
   -0.7145   -6.1875    0.0000 Cl  0  0  0  0  0  0  0  0  0  0  0  0
   -1.4289   -4.9500    0.0000 C   0  0  0  0  0  0  0  0  0  0  0  0
   -2.1434   -5.3625    0.0000 H   0  0  0  0  0  0  0  0  0  0  0  0
   -1.4289   -4.1250    0.0000 C   0  0  0  0  0  0  0  0  0  0  0  0
   -0.7145   -3.7125    0.0000 C   0  0  0  0  0  0  0  0  0  0  0  0
   -0.8860   -2.9055    0.0000 O   0  0  0  0  0  0  0  0  0  0  0  0
   -1.7065   -2.8193    0.0000 C   0  0  0  0  0  0  0  0  0  0  0  0
   -2.0420   -3.5730    0.0000 C   0  0  0  0  0  0  0  0  0  0  0  0
   -2.8351   -3.3456    0.0000 H   0  0  0  0  0  0  0  0  0  0  0  0
   -2.6740   -4.1033    0.0000 H   0  0  0  0  0  0  0  0  0  0  0  0
   -1.7353   -1.9948    0.0000 H   0  0  0  0  0  0  0  0  0  0  0  0
   -2.4061   -2.3821    0.0000 H   0  0  0  0  0  0  0  0  0  0  0  0
    1.1678   -4.4018    0.0000 H   0  0  0  0  0  0  0  0  0  0  0  0
    1.5381   -3.7605    0.0000 H   0  0  0  0  0  0  0  0  0  0  0  0
    1.4289   -2.4750    0.0000 N   0  0  0  0  0  0  0  0  0  0  0  0
    1.4289   -1.6500    0.0000 C   0  0  0  0  0  0  0  0  0  0  0  0
    0.7145   -1.2375    0.0000 C   0  0  0  0  0  0  0  0  0  0  0  0
    0.0000   -1.6500    0.0000 H   0  0  0  0  0  0  0  0  0  0  0  0
    0.7145   -0.4125    0.0000 N   0  0  0  0  0  0  0  0  0  0  0  0
    1.4289    0.0000    0.0000 C   0  0  0  0  0  0  0  0  0  0  0  0
    1.4289    0.8250    0.0000 H   0  0  0  0  0  0  0  0  0  0  0  0
    2.1434   -0.4125    0.0000 C   0  0  0  0  0  0  0  0  0  0  0  0
    2.8579    0.0000    0.0000 C   0  0  0  0  0  0  0  0  0  0  0  0
    3.5724   -0.4125    0.0000 C   0  0  0  0  0  0  0  0  0  0  0  0
    3.5724   -1.2375    0.0000 C   0  0  0  0  0  0  0  0  0  0  0  0
    2.8579   -1.6500    0.0000 C   0  0  0  0  0  0  0  0  0  0  0  0
    2.8579   -2.4750    0.0000 H   0  0  0  0  0  0  0  0  0  0  0  0
    2.1434   -1.2375    0.0000 C   0  0  0  0  0  0  0  0  0  0  0  0
    4.2868   -1.6500    0.0000 H   0  0  0  0  0  0  0  0  0  0  0  0
    4.2868   -0.0000    0.0000 H   0  0  0  0  0  0  0  0  0  0  0  0
    2.8579    0.8250    0.0000 H   0  0  0  0  0  0  0  0  0  0  0  0
    2.1434   -2.8875    0.0000 H   0  0  0  0  0  0  0  0  0  0  0  0
  1  2  2  0  0  0  0
  2  3  1  0  0  0  0
  3  4  1  0  0  0  0
  4  5  2  0  0  0  0
  5  6  1  0  0  0  0
  5  7  1  0  0  0  0
  7  8  1  0  0  0  0
  7  9  2  0  0  0  0
  9 10  1  0  0  0  0
  9 11  1  0  0  0  0
 11 12  2  0  0  0  0
  4 12  1  0  0  0  0
 12 13  1  0  0  0  0
 13 14  1  0  0  0  0
 14 15  1  0  0  0  0
 11 15  1  0  0  0  0
 15 16  1  0  0  0  0
 15 17  1  0  0  0  0
 14 18  1  0  0  0  0
 14 19  1  0  0  0  0
  3 20  1  0  0  0  0
  3 21  1  0  0  0  0
  2 22  1  0  0  0  0
 22 23  1  0  0  0  0
 23 24  2  0  0  0  0
 24 25  1  0  0  0  0
 24 26  1  0  0  0  0
 26 27  2  0  0  0  0
 27 28  1  0  0  0  0
 27 29  1  0  0  0  0
 29 30  2  0  0  0  0
 30 31  1  0  0  0  0
 31 32  2  0  0  0  0
 32 33  1  0  0  0  0
 33 34  1  0  0  0  0
 33 35  2  0  0  0  0
 23 35  1  0  0  0  0
 29 35  1  0  0  0  0
 32 36  1  0  0  0  0
 31 37  1  0  0  0  0
 30 38  1  0  0  0  0
 22 39  1  0  0  0  0
M  END
> <Potency>
1.44887030485255

> <pIC50>
5.8389704885162566

> <Outcome>
Active

> <is_active>
1

$$$$

  Mrv1921 08232120312D          

 31 33  0  0  0  0            999 V2000
   -0.4752   -1.7084    0.0000 O   0  0  0  0  0  0  0  0  0  0  0  0
    0.0768   -2.3215    0.0000 C   0  0  0  0  0  0  0  0  0  0  0  0
   -0.1781   -3.1062    0.0000 C   0  0  0  0  0  0  0  0  0  0  0  0
   -0.9851   -3.2777    0.0000 C   0  0  0  0  0  0  0  0  0  0  0  0
   -1.2400   -4.0623    0.0000 C   0  0  0  0  0  0  0  0  0  0  0  0
   -0.6880   -4.6754    0.0000 H   0  0  0  0  0  0  0  0  0  0  0  0
   -2.0470   -4.2338    0.0000 C   0  0  0  0  0  0  0  0  0  0  0  0
   -2.3020   -5.0184    0.0000 H   0  0  0  0  0  0  0  0  0  0  0  0
   -2.5990   -3.6207    0.0000 C   0  0  0  0  0  0  0  0  0  0  0  0
   -3.4060   -3.7923    0.0000 H   0  0  0  0  0  0  0  0  0  0  0  0
   -2.3441   -2.8361    0.0000 C   0  0  0  0  0  0  0  0  0  0  0  0
   -2.8961   -2.2230    0.0000 Cl  0  0  0  0  0  0  0  0  0  0  0  0
   -1.5371   -2.6646    0.0000 C   0  0  0  0  0  0  0  0  0  0  0  0
   -1.2822   -1.8800    0.0000 H   0  0  0  0  0  0  0  0  0  0  0  0
    0.0400   -3.9018    0.0000 H   0  0  0  0  0  0  0  0  0  0  0  0
    0.5903   -3.4063    0.0000 H   0  0  0  0  0  0  0  0  0  0  0  0
    0.8838   -2.1500    0.0000 N   0  0  0  0  0  0  0  0  0  0  0  0
    1.1387   -1.3654    0.0000 N   0  0  0  0  0  0  0  0  0  0  0  0
    0.6538   -0.6979    0.0000 N   0  0  0  0  0  0  0  0  0  0  0  0
    1.1387   -0.0305    0.0000 N   0  0  0  0  0  0  0  0  0  0  0  0
    1.9233   -0.2854    0.0000 C   0  0  0  0  0  0  0  0  0  0  0  0
    2.6378    0.1271    0.0000 C   0  0  0  0  0  0  0  0  0  0  0  0
    3.3523   -0.2854    0.0000 C   0  0  0  0  0  0  0  0  0  0  0  0
    3.3523   -1.1104    0.0000 C   0  0  0  0  0  0  0  0  0  0  0  0
    2.6378   -1.5229    0.0000 C   0  0  0  0  0  0  0  0  0  0  0  0
    2.6378   -2.3479    0.0000 H   0  0  0  0  0  0  0  0  0  0  0  0
    1.9233   -1.1104    0.0000 C   0  0  0  0  0  0  0  0  0  0  0  0
    4.0668   -1.5229    0.0000 H   0  0  0  0  0  0  0  0  0  0  0  0
    4.0668    0.1271    0.0000 H   0  0  0  0  0  0  0  0  0  0  0  0
    2.6378    0.9521    0.0000 H   0  0  0  0  0  0  0  0  0  0  0  0
    1.4358   -2.7631    0.0000 H   0  0  0  0  0  0  0  0  0  0  0  0
  1  2  2  0  0  0  0
  2  3  1  0  0  0  0
  3  4  1  0  0  0  0
  4  5  2  0  0  0  0
  5  6  1  0  0  0  0
  5  7  1  0  0  0  0
  7  8  1  0  0  0  0
  7  9  2  0  0  0  0
  9 10  1  0  0  0  0
  9 11  1  0  0  0  0
 11 12  1  0  0  0  0
 11 13  2  0  0  0  0
  4 13  1  0  0  0  0
 13 14  1  0  0  0  0
  3 15  1  0  0  0  0
  3 16  1  0  0  0  0
  2 17  1  0  0  0  0
 17 18  1  0  0  0  0
 18 19  1  0  0  0  0
 19 20  2  0  0  0  0
 20 21  1  0  0  0  0
 21 22  2  0  0  0  0
 22 23  1  0  0  0  0
 23 24  2  0  0  0  0
 24 25  1  0  0  0  0
 25 26  1  0  0  0  0
 25 27  2  0  0  0  0
 18 27  1  0  0  0  0
 21 27  1  0  0  0  0
 24 28  1  0  0  0  0
 23 29  1  0  0  0  0
 22 30  1  0  0  0  0
 17 31  1  0  0  0  0
M  END
> <Potency>
5.80242437708152

> <pIC50>
5.236390510989273

> <Outcome>
Active

> <is_active>
1

$$$$

  Mrv1921 08232120312D          

 51 55  0  0  0  0            999 V2000
   -0.4752   -1.7084    0.0000 O   0  0  0  0  0  0  0  0  0  0  0  0
    0.0768   -2.3215    0.0000 C   0  0  0  0  0  0  0  0  0  0  0  0
    0.8838   -2.1500    0.0000 C   0  0  0  0  0  0  0  0  0  0  0  0
    1.1387   -1.3654    0.0000 N   0  0  0  0  0  0  0  0  0  0  0  0
    0.6538   -0.6979    0.0000 N   0  0  0  0  0  0  0  0  0  0  0  0
    1.1387   -0.0305    0.0000 N   0  0  0  0  0  0  0  0  0  0  0  0
    1.9233   -0.2854    0.0000 C   0  0  0  0  0  0  0  0  0  0  0  0
    2.6378    0.1271    0.0000 C   0  0  0  0  0  0  0  0  0  0  0  0
    3.3523   -0.2854    0.0000 C   0  0  0  0  0  0  0  0  0  0  0  0
    3.3523   -1.1104    0.0000 C   0  0  0  0  0  0  0  0  0  0  0  0
    2.6378   -1.5229    0.0000 C   0  0  0  0  0  0  0  0  0  0  0  0
    2.6378   -2.3479    0.0000 H   0  0  0  0  0  0  0  0  0  0  0  0
    1.9233   -1.1104    0.0000 C   0  0  0  0  0  0  0  0  0  0  0  0
    4.0668   -1.5229    0.0000 H   0  0  0  0  0  0  0  0  0  0  0  0
    4.0668    0.1271    0.0000 H   0  0  0  0  0  0  0  0  0  0  0  0
    2.6378    0.9521    0.0000 H   0  0  0  0  0  0  0  0  0  0  0  0
    1.1019   -2.9456    0.0000 H   0  0  0  0  0  0  0  0  0  0  0  0
    1.6523   -2.4501    0.0000 H   0  0  0  0  0  0  0  0  0  0  0  0
   -0.1781   -3.1062    0.0000 N   0  0  0  0  0  0  0  0  0  0  0  0
    0.3739   -3.7192    0.0000 C   0  0  0  0  0  0  0  0  0  0  0  0
    0.1190   -4.5039    0.0000 C   0  0  0  0  0  0  0  0  0  0  0  0
    0.6039   -5.1713    0.0000 C   0  0  0  0  0  0  0  0  0  0  0  0
    1.4289   -5.1713    0.0000 H   0  0  0  0  0  0  0  0  0  0  0  0
    0.1190   -5.8387    0.0000 C   0  0  0  0  0  0  0  0  0  0  0  0
    0.3739   -6.6234    0.0000 H   0  0  0  0  0  0  0  0  0  0  0  0
   -0.6657   -5.5838    0.0000 S   0  0  0  0  0  0  0  0  0  0  0  0
   -0.6657   -4.7588    0.0000 C   0  0  0  0  0  0  0  0  0  0  0  0
   -1.4421   -5.0377    0.0000 H   0  0  0  0  0  0  0  0  0  0  0  0
    1.1720   -3.9281    0.0000 H   0  0  0  0  0  0  0  0  0  0  0  0
    1.0181   -3.2038    0.0000 H   0  0  0  0  0  0  0  0  0  0  0  0
   -0.9851   -3.2777    0.0000 C   0  0  0  0  0  0  0  0  0  0  0  0
   -1.2400   -4.0623    0.0000 C   0  0  0  0  0  0  0  0  0  0  0  0
   -0.4295   -3.9083    0.0000 H   0  0  0  0  0  0  0  0  0  0  0  0
   -2.0470   -4.2338    0.0000 C   0  0  0  0  0  0  0  0  0  0  0  0
   -2.3020   -5.0184    0.0000 H   0  0  0  0  0  0  0  0  0  0  0  0
   -2.5990   -3.6207    0.0000 C   0  0  0  0  0  0  0  0  0  0  0  0
   -3.4060   -3.7923    0.0000 C   0  0  0  0  0  0  0  0  0  0  0  0
   -3.6610   -4.5769    0.0000 C   0  0  0  0  0  0  0  0  0  0  0  0
   -3.1089   -5.1900    0.0000 H   0  0  0  0  0  0  0  0  0  0  0  0
   -4.4679   -4.7484    0.0000 C   0  0  0  0  0  0  0  0  0  0  0  0
   -4.7229   -5.5330    0.0000 H   0  0  0  0  0  0  0  0  0  0  0  0
   -5.0200   -4.1353    0.0000 C   0  0  0  0  0  0  0  0  0  0  0  0
   -5.8269   -4.3068    0.0000 H   0  0  0  0  0  0  0  0  0  0  0  0
   -4.7650   -3.3507    0.0000 C   0  0  0  0  0  0  0  0  0  0  0  0
   -5.3171   -2.7376    0.0000 H   0  0  0  0  0  0  0  0  0  0  0  0
   -3.9580   -3.1792    0.0000 C   0  0  0  0  0  0  0  0  0  0  0  0
   -3.7031   -2.3945    0.0000 H   0  0  0  0  0  0  0  0  0  0  0  0
   -2.3441   -2.8361    0.0000 C   0  0  0  0  0  0  0  0  0  0  0  0
   -2.8961   -2.2230    0.0000 H   0  0  0  0  0  0  0  0  0  0  0  0
   -1.5371   -2.6646    0.0000 C   0  0  0  0  0  0  0  0  0  0  0  0
   -1.2822   -1.8800    0.0000 H   0  0  0  0  0  0  0  0  0  0  0  0
  1  2  2  0  0  0  0
  2  3  1  0  0  0  0
  3  4  1  0  0  0  0
  4  5  1  0  0  0  0
  5  6  2  0  0  0  0
  6  7  1  0  0  0  0
  7  8  2  0  0  0  0
  8  9  1  0  0  0  0
  9 10  2  0  0  0  0
 10 11  1  0  0  0  0
 11 12  1  0  0  0  0
 11 13  2  0  0  0  0
  4 13  1  0  0  0  0
  7 13  1  0  0  0  0
 10 14  1  0  0  0  0
  9 15  1  0  0  0  0
  8 16  1  0  0  0  0
  3 17  1  0  0  0  0
  3 18  1  0  0  0  0
  2 19  1  0  0  0  0
 19 20  1  0  0  0  0
 20 21  1  0  0  0  0
 21 22  1  0  0  0  0
 22 23  1  0  0  0  0
 22 24  2  0  0  0  0
 24 25  1  0  0  0  0
 24 26  1  0  0  0  0
 26 27  1  0  0  0  0
 21 27  2  0  0  0  0
 27 28  1  0  0  0  0
 20 29  1  0  0  0  0
 20 30  1  0  0  0  0
 19 31  1  0  0  0  0
 31 32  2  0  0  0  0
 32 33  1  0  0  0  0
 32 34  1  0  0  0  0
 34 35  1  0  0  0  0
 34 36  2  0  0  0  0
 36 37  1  0  0  0  0
 37 38  2  0  0  0  0
 38 39  1  0  0  0  0
 38 40  1  0  0  0  0
 40 41  1  0  0  0  0
 40 42  2  0  0  0  0
 42 43  1  0  0  0  0
 42 44  1  0  0  0  0
 44 45  1  0  0  0  0
 44 46  2  0  0  0  0
 37 46  1  0  0  0  0
 46 47  1  0  0  0  0
 36 48  1  0  0  0  0
 48 49  1  0  0  0  0
 48 50  2  0  0  0  0
 31 50  1  0  0  0  0
 50 51  1  0  0  0  0
M  END
> <Potency>
5.32026186317774

> <pIC50>
5.274066991213547

> <Outcome>
Active

> <is_active>
1

$$$$

  Mrv1921 08232120312D          

 31 32  0  0  0  0            999 V2000
    1.4289    8.8286    0.0000 O   0  0  0  0  0  0  0  0  0  0  0  0
    0.7145    8.4161    0.0000 C   0  0  0  0  0  0  0  0  0  0  0  0
   -0.0000    8.8286    0.0000 C   0  0  0  0  0  0  0  0  0  0  0  0
   -0.0000    9.6536    0.0000 Cl  0  0  0  0  0  0  0  0  0  0  0  0
   -0.8236    8.7806    0.0000 H   0  0  0  0  0  0  0  0  0  0  0  0
   -0.4533    8.1393    0.0000 H   0  0  0  0  0  0  0  0  0  0  0  0
    0.7145    7.5911    0.0000 N   0  0  0  0  0  0  0  0  0  0  0  0
    1.4289    7.1786    0.0000 C   0  0  0  0  0  0  0  0  0  0  0  0
    2.2525    7.2265    0.0000 H   0  0  0  0  0  0  0  0  0  0  0  0
    1.8823    7.8679    0.0000 H   0  0  0  0  0  0  0  0  0  0  0  0
    1.4289    6.3536    0.0000 C   0  0  0  0  0  0  0  0  0  0  0  0
    1.8823    5.6643    0.0000 H   0  0  0  0  0  0  0  0  0  0  0  0
    2.2525    6.3056    0.0000 H   0  0  0  0  0  0  0  0  0  0  0  0
    0.7145    5.9411    0.0000 N   0  0  0  0  0  0  0  0  0  0  0  0
    0.7145    5.1161    0.0000 S   0  0  0  0  0  0  0  0  0  0  0  0
   -0.1105    5.1161    0.0000 O   0  0  0  0  0  0  0  0  0  0  0  0
    1.5395    5.1161    0.0000 O   0  0  0  0  0  0  0  0  0  0  0  0
    0.7145    4.2911    0.0000 C   0  0  0  0  0  0  0  0  0  0  0  0
    1.3819    3.8062    0.0000 C   0  0  0  0  0  0  0  0  0  0  0  0
    2.1665    4.0611    0.0000 H   0  0  0  0  0  0  0  0  0  0  0  0
    1.1270    3.0215    0.0000 C   0  0  0  0  0  0  0  0  0  0  0  0
    1.6119    2.3541    0.0000 H   0  0  0  0  0  0  0  0  0  0  0  0
    0.3020    3.0215    0.0000 S   0  0  0  0  0  0  0  0  0  0  0  0
    0.0470    3.8062    0.0000 C   0  0  0  0  0  0  0  0  0  0  0  0
   -0.7376    4.0611    0.0000 H   0  0  0  0  0  0  0  0  0  0  0  0
   -0.0000    6.3536    0.0000 C   0  0  0  0  0  0  0  0  0  0  0  0
   -0.8236    6.3056    0.0000 H   0  0  0  0  0  0  0  0  0  0  0  0
   -0.4533    5.6643    0.0000 H   0  0  0  0  0  0  0  0  0  0  0  0
   -0.0000    7.1786    0.0000 C   0  0  0  0  0  0  0  0  0  0  0  0
   -0.4533    7.8679    0.0000 H   0  0  0  0  0  0  0  0  0  0  0  0
   -0.8236    7.2265    0.0000 H   0  0  0  0  0  0  0  0  0  0  0  0
  1  2  2  0  0  0  0
  2  3  1  0  0  0  0
  3  4  1  0  0  0  0
  3  5  1  0  0  0  0
  3  6  1  0  0  0  0
  2  7  1  0  0  0  0
  7  8  1  0  0  0  0
  8  9  1  0  0  0  0
  8 10  1  0  0  0  0
  8 11  1  0  0  0  0
 11 12  1  0  0  0  0
 11 13  1  0  0  0  0
 11 14  1  0  0  0  0
 14 15  1  0  0  0  0
 15 16  2  0  0  0  0
 15 17  2  0  0  0  0
 15 18  1  0  0  0  0
 18 19  1  0  0  0  0
 19 20  1  0  0  0  0
 19 21  2  0  0  0  0
 21 22  1  0  0  0  0
 21 23  1  0  0  0  0
 23 24  1  0  0  0  0
 18 24  2  0  0  0  0
 24 25  1  0  0  0  0
 14 26  1  0  0  0  0
 26 27  1  0  0  0  0
 26 28  1  0  0  0  0
 26 29  1  0  0  0  0
  7 29  1  0  0  0  0
 29 30  1  0  0  0  0
 29 31  1  0  0  0  0
M  END
> <Potency>
1.63084331612158

> <pIC50>
5.787587761959426

> <Outcome>
Active

> <is_active>
1

$$$$

  Mrv1921 08232120312D          

 31 32  0  0  0  0            999 V2000
   -0.8212    6.8277    0.0000 O   0  0  0  0  0  0  0  0  0  0  0  0
   -0.8212    6.0027    0.0000 C   0  0  0  0  0  0  0  0  0  0  0  0
   -1.5356    5.5902    0.0000 C   0  0  0  0  0  0  0  0  0  0  0  0
   -2.2501    6.0027    0.0000 Cl  0  0  0  0  0  0  0  0  0  0  0  0
   -1.9059    4.8529    0.0000 H   0  0  0  0  0  0  0  0  0  0  0  0
   -1.1654    4.8529    0.0000 H   0  0  0  0  0  0  0  0  0  0  0  0
   -0.1067    5.5902    0.0000 N   0  0  0  0  0  0  0  0  0  0  0  0
    0.6078    6.0027    0.0000 C   0  0  0  0  0  0  0  0  0  0  0  0
    0.9780    6.7399    0.0000 H   0  0  0  0  0  0  0  0  0  0  0  0
    0.2375    6.7399    0.0000 H   0  0  0  0  0  0  0  0  0  0  0  0
    1.3222    5.5902    0.0000 C   0  0  0  0  0  0  0  0  0  0  0  0
    2.1458    5.6381    0.0000 H   0  0  0  0  0  0  0  0  0  0  0  0
    1.7756    6.2795    0.0000 H   0  0  0  0  0  0  0  0  0  0  0  0
    1.3222    4.7652    0.0000 N   0  0  0  0  0  0  0  0  0  0  0  0
    2.0367    4.3527    0.0000 C   0  0  0  0  0  0  0  0  0  0  0  0
    2.0367    3.5277    0.0000 C   0  0  0  0  0  0  0  0  0  0  0  0
    2.7041    3.0428    0.0000 C   0  0  0  0  0  0  0  0  0  0  0  0
    3.4888    3.2977    0.0000 H   0  0  0  0  0  0  0  0  0  0  0  0
    2.4492    2.2581    0.0000 C   0  0  0  0  0  0  0  0  0  0  0  0
    2.9341    1.5907    0.0000 H   0  0  0  0  0  0  0  0  0  0  0  0
    1.6242    2.2581    0.0000 S   0  0  0  0  0  0  0  0  0  0  0  0
    1.3693    3.0428    0.0000 C   0  0  0  0  0  0  0  0  0  0  0  0
    0.5846    3.2977    0.0000 H   0  0  0  0  0  0  0  0  0  0  0  0
    2.8603    4.4006    0.0000 H   0  0  0  0  0  0  0  0  0  0  0  0
    2.4901    5.0420    0.0000 H   0  0  0  0  0  0  0  0  0  0  0  0
    0.6078    4.3527    0.0000 C   0  0  0  0  0  0  0  0  0  0  0  0
    0.2375    3.6154    0.0000 H   0  0  0  0  0  0  0  0  0  0  0  0
    0.9780    3.6154    0.0000 H   0  0  0  0  0  0  0  0  0  0  0  0
   -0.1067    4.7652    0.0000 C   0  0  0  0  0  0  0  0  0  0  0  0
   -0.9303    4.7172    0.0000 H   0  0  0  0  0  0  0  0  0  0  0  0
   -0.5601    4.0759    0.0000 H   0  0  0  0  0  0  0  0  0  0  0  0
  1  2  2  0  0  0  0
  2  3  1  0  0  0  0
  3  4  1  0  0  0  0
  3  5  1  0  0  0  0
  3  6  1  0  0  0  0
  2  7  1  0  0  0  0
  7  8  1  0  0  0  0
  8  9  1  0  0  0  0
  8 10  1  0  0  0  0
  8 11  1  0  0  0  0
 11 12  1  0  0  0  0
 11 13  1  0  0  0  0
 11 14  1  0  0  0  0
 14 15  1  0  0  0  0
 15 16  1  0  0  0  0
 16 17  1  0  0  0  0
 17 18  1  0  0  0  0
 17 19  2  0  0  0  0
 19 20  1  0  0  0  0
 19 21  1  0  0  0  0
 21 22  1  0  0  0  0
 16 22  2  0  0  0  0
 22 23  1  0  0  0  0
 15 24  1  0  0  0  0
 15 25  1  0  0  0  0
 14 26  1  0  0  0  0
 26 27  1  0  0  0  0
 26 28  1  0  0  0  0
 26 29  1  0  0  0  0
  7 29  1  0  0  0  0
 29 30  1  0  0  0  0
 29 31  1  0  0  0  0
M  END
> <Potency>
3.49772002955534

> <pIC50>
5.456214956002374

> <Outcome>
Active

> <is_active>
1

$$$$

  Mrv1921 08232120312D          

 44 46  0  0  0  0            999 V2000
    1.4289   -1.6500    0.0000 O   0  0  0  0  0  0  0  0  0  0  0  0
    0.7145   -1.2375    0.0000 C   0  0  0  0  0  0  0  0  0  0  0  0
    0.7145   -0.4125    0.0000 C   0  0  0  0  0  0  0  0  0  0  0  0
    1.4289   -0.0000    0.0000 Cl  0  0  0  0  0  0  0  0  0  0  0  0
    0.2611    0.2768    0.0000 H   0  0  0  0  0  0  0  0  0  0  0  0
   -0.1091   -0.3645    0.0000 H   0  0  0  0  0  0  0  0  0  0  0  0
    0.0000   -1.6500    0.0000 N   0  0  0  0  0  0  0  0  0  0  0  0
    0.0000   -2.4750    0.0000 C   0  0  0  0  0  0  0  0  0  0  0  0
    0.4533   -3.1643    0.0000 H   0  0  0  0  0  0  0  0  0  0  0  0
    0.8236   -2.5230    0.0000 H   0  0  0  0  0  0  0  0  0  0  0  0
   -0.7145   -2.8875    0.0000 C   0  0  0  0  0  0  0  0  0  0  0  0
   -1.0847   -3.6247    0.0000 H   0  0  0  0  0  0  0  0  0  0  0  0
   -0.3442   -3.6247    0.0000 H   0  0  0  0  0  0  0  0  0  0  0  0
   -1.4289   -2.4750    0.0000 N   0  0  0  0  0  0  0  0  0  0  0  0
   -2.1434   -2.8875    0.0000 C   0  0  0  0  0  0  0  0  0  0  0  0
   -2.8579   -2.4750    0.0000 C   0  0  0  0  0  0  0  0  0  0  0  0
   -3.5724   -2.8875    0.0000 C   0  0  0  0  0  0  0  0  0  0  0  0
   -3.5724   -3.7125    0.0000 H   0  0  0  0  0  0  0  0  0  0  0  0
   -4.2868   -2.4750    0.0000 C   0  0  0  0  0  0  0  0  0  0  0  0
   -5.0013   -2.8875    0.0000 H   0  0  0  0  0  0  0  0  0  0  0  0
   -4.2868   -1.6500    0.0000 C   0  0  0  0  0  0  0  0  0  0  0  0
   -5.0013   -1.2375    0.0000 H   0  0  0  0  0  0  0  0  0  0  0  0
   -3.5724   -1.2375    0.0000 C   0  0  0  0  0  0  0  0  0  0  0  0
   -3.5724   -0.4125    0.0000 H   0  0  0  0  0  0  0  0  0  0  0  0
   -2.8579   -1.6500    0.0000 C   0  0  0  0  0  0  0  0  0  0  0  0
   -2.4454   -0.9355    0.0000 H   0  0  0  0  0  0  0  0  0  0  0  0
   -2.1434   -3.7125    0.0000 C   0  0  0  0  0  0  0  0  0  0  0  0
   -1.4289   -4.1250    0.0000 C   0  0  0  0  0  0  0  0  0  0  0  0
   -0.6411   -4.3699    0.0000 H   0  0  0  0  0  0  0  0  0  0  0  0
   -1.4289   -4.9500    0.0000 C   0  0  0  0  0  0  0  0  0  0  0  0
   -0.7145   -5.3625    0.0000 H   0  0  0  0  0  0  0  0  0  0  0  0
   -2.1434   -5.3625    0.0000 C   0  0  0  0  0  0  0  0  0  0  0  0
   -2.1434   -6.1875    0.0000 H   0  0  0  0  0  0  0  0  0  0  0  0
   -2.8579   -4.9500    0.0000 C   0  0  0  0  0  0  0  0  0  0  0  0
   -3.5724   -5.3625    0.0000 H   0  0  0  0  0  0  0  0  0  0  0  0
   -2.8579   -4.1250    0.0000 C   0  0  0  0  0  0  0  0  0  0  0  0
   -2.8579   -3.3000    0.0000 H   0  0  0  0  0  0  0  0  0  0  0  0
   -2.1434   -2.0625    0.0000 H   0  0  0  0  0  0  0  0  0  0  0  0
   -1.4289   -1.6500    0.0000 C   0  0  0  0  0  0  0  0  0  0  0  0
   -1.5722   -0.8375    0.0000 H   0  0  0  0  0  0  0  0  0  0  0  0
   -2.0609   -1.1197    0.0000 H   0  0  0  0  0  0  0  0  0  0  0  0
   -0.7145   -1.2375    0.0000 C   0  0  0  0  0  0  0  0  0  0  0  0
   -0.1008   -0.6861    0.0000 H   0  0  0  0  0  0  0  0  0  0  0  0
   -0.6147   -0.4186    0.0000 H   0  0  0  0  0  0  0  0  0  0  0  0
  1  2  2  0  0  0  0
  2  3  1  0  0  0  0
  3  4  1  0  0  0  0
  3  5  1  0  0  0  0
  3  6  1  0  0  0  0
  2  7  1  0  0  0  0
  7  8  1  0  0  0  0
  8  9  1  0  0  0  0
  8 10  1  0  0  0  0
  8 11  1  0  0  0  0
 11 12  1  0  0  0  0
 11 13  1  0  0  0  0
 11 14  1  0  0  0  0
 14 15  1  0  0  0  0
 15 16  1  0  0  0  0
 16 17  2  0  0  0  0
 17 18  1  0  0  0  0
 17 19  1  0  0  0  0
 19 20  1  0  0  0  0
 19 21  2  0  0  0  0
 21 22  1  0  0  0  0
 21 23  1  0  0  0  0
 23 24  1  0  0  0  0
 23 25  2  0  0  0  0
 16 25  1  0  0  0  0
 25 26  1  0  0  0  0
 15 27  1  0  0  0  0
 27 28  2  0  0  0  0
 28 29  1  0  0  0  0
 28 30  1  0  0  0  0
 30 31  1  0  0  0  0
 30 32  2  0  0  0  0
 32 33  1  0  0  0  0
 32 34  1  0  0  0  0
 34 35  1  0  0  0  0
 34 36  2  0  0  0  0
 27 36  1  0  0  0  0
 36 37  1  0  0  0  0
 15 38  1  0  0  0  0
 14 39  1  0  0  0  0
 39 40  1  0  0  0  0
 39 41  1  0  0  0  0
 39 42  1  0  0  0  0
  7 42  1  0  0  0  0
 42 43  1  0  0  0  0
 42 44  1  0  0  0  0
M  END
> <Potency>
1.9753874756434

> <pIC50>
5.704347704073642

> <Outcome>
Active

> <is_active>
1

$$$$

  Mrv1921 08232120312D          

 42 45  0  0  0  0            999 V2000
    2.1434   -5.3625    0.0000 N   0  0  0  0  0  0  0  0  0  0  0  0
    1.4289   -4.9500    0.0000 C   0  0  0  0  0  0  0  0  0  0  0  0
    0.7145   -5.3625    0.0000 C   0  0  0  0  0  0  0  0  0  0  0  0
    0.7145   -6.1875    0.0000 H   0  0  0  0  0  0  0  0  0  0  0  0
    0.0000   -4.9500    0.0000 N   0  0  0  0  0  0  0  0  0  0  0  0
    0.0000   -4.1250    0.0000 C   0  0  0  0  0  0  0  0  0  0  0  0
   -0.7145   -3.7125    0.0000 H   0  0  0  0  0  0  0  0  0  0  0  0
    0.7145   -3.7125    0.0000 C   0  0  0  0  0  0  0  0  0  0  0  0
    0.7145   -2.8875    0.0000 N   0  0  0  0  0  0  0  0  0  0  0  0
    1.4289   -2.4750    0.0000 C   0  0  0  0  0  0  0  0  0  0  0  0
    2.1434   -2.8875    0.0000 O   0  0  0  0  0  0  0  0  0  0  0  0
    1.4289   -1.6500    0.0000 C   0  0  0  0  0  0  0  0  0  0  0  0
    0.7145   -1.2375    0.0000 C   0  0  0  0  0  0  0  0  0  0  0  0
   -0.1091   -1.2855    0.0000 H   0  0  0  0  0  0  0  0  0  0  0  0
    0.2611   -1.9268    0.0000 H   0  0  0  0  0  0  0  0  0  0  0  0
    0.7145   -0.4125    0.0000 C   0  0  0  0  0  0  0  0  0  0  0  0
    0.2611    0.2768    0.0000 H   0  0  0  0  0  0  0  0  0  0  0  0
   -0.1091   -0.3645    0.0000 H   0  0  0  0  0  0  0  0  0  0  0  0
    1.4289    0.0000    0.0000 O   0  0  0  0  0  0  0  0  0  0  0  0
    2.1434   -0.4125    0.0000 C   0  0  0  0  0  0  0  0  0  0  0  0
    2.8579    0.0000    0.0000 C   0  0  0  0  0  0  0  0  0  0  0  0
    3.5724   -0.4125    0.0000 C   0  0  0  0  0  0  0  0  0  0  0  0
    3.5724   -1.2375    0.0000 C   0  0  0  0  0  0  0  0  0  0  0  0
    4.2868   -1.6500    0.0000 Cl  0  0  0  0  0  0  0  0  0  0  0  0
    2.8579   -1.6500    0.0000 C   0  0  0  0  0  0  0  0  0  0  0  0
    3.2704   -2.3645    0.0000 H   0  0  0  0  0  0  0  0  0  0  0  0
    2.1434   -1.2375    0.0000 C   0  0  0  0  0  0  0  0  0  0  0  0
    4.2868   -0.0000    0.0000 H   0  0  0  0  0  0  0  0  0  0  0  0
    2.8579    0.8250    0.0000 H   0  0  0  0  0  0  0  0  0  0  0  0
    2.1434   -2.0625    0.0000 H   0  0  0  0  0  0  0  0  0  0  0  0
    0.0000   -2.4750    0.0000 H   0  0  0  0  0  0  0  0  0  0  0  0
    1.4289   -4.1250    0.0000 C   0  0  0  0  0  0  0  0  0  0  0  0
    2.1434   -3.7125    0.0000 C   0  0  0  0  0  0  0  0  0  0  0  0
    2.5559   -2.9980    0.0000 C   0  0  0  0  0  0  0  0  0  0  0  0
    2.3664   -2.1951    0.0000 H   0  0  0  0  0  0  0  0  0  0  0  0
    3.3703   -3.1302    0.0000 H   0  0  0  0  0  0  0  0  0  0  0  0
    2.9684   -3.7125    0.0000 C   0  0  0  0  0  0  0  0  0  0  0  0
    2.9906   -4.5372    0.0000 H   0  0  0  0  0  0  0  0  0  0  0  0
    3.6346   -4.1992    0.0000 H   0  0  0  0  0  0  0  0  0  0  0  0
    2.3569   -4.5094    0.0000 H   0  0  0  0  0  0  0  0  0  0  0  0
    2.1434   -6.1875    0.0000 H   0  0  0  0  0  0  0  0  0  0  0  0
    2.8579   -4.9500    0.0000 H   0  0  0  0  0  0  0  0  0  0  0  0
  1  2  1  0  0  0  0
  2  3  2  0  0  0  0
  3  4  1  0  0  0  0
  3  5  1  0  0  0  0
  5  6  2  0  0  0  0
  6  7  1  0  0  0  0
  6  8  1  0  0  0  0
  8  9  1  0  0  0  0
  9 10  1  0  0  0  0
 10 11  2  0  0  0  0
 10 12  1  0  0  0  0
 12 13  1  0  0  0  0
 13 14  1  0  0  0  0
 13 15  1  0  0  0  0
 13 16  1  0  0  0  0
 16 17  1  0  0  0  0
 16 18  1  0  0  0  0
 16 19  1  0  0  0  0
 19 20  1  0  0  0  0
 20 21  2  0  0  0  0
 21 22  1  0  0  0  0
 22 23  2  0  0  0  0
 23 24  1  0  0  0  0
 23 25  1  0  0  0  0
 25 26  1  0  0  0  0
 25 27  2  0  0  0  0
 12 27  1  0  0  0  0
 20 27  1  0  0  0  0
 22 28  1  0  0  0  0
 21 29  1  0  0  0  0
 12 30  1  0  0  0  0
  9 31  1  0  0  0  0
  8 32  2  0  0  0  0
  2 32  1  0  0  0  0
 32 33  1  0  0  0  0
 33 34  1  0  0  0  0
 34 35  1  0  0  0  0
 34 36  1  0  0  0  0
 34 37  1  0  0  0  0
 33 37  1  0  0  0  0
 37 38  1  0  0  0  0
 37 39  1  0  0  0  0
 33 40  1  0  0  0  0
  1 41  1  0  0  0  0
  1 42  1  0  0  0  0
M  END
> <Potency>
4.94545200121466

> <pIC50>
5.305794008887359

> <Outcome>
Active

> <is_active>
1

$$$$

  Mrv1921 08232120312D          

 45 48  0  0  0  0            999 V2000
    1.8953   -5.1197    0.0000 C   0  0  0  0  0  0  0  0  0  0  0  0
    2.4256   -4.4877    0.0000 O   0  0  0  0  0  0  0  0  0  0  0  0
    2.1434   -3.7125    0.0000 C   0  0  0  0  0  0  0  0  0  0  0  0
    2.9559   -3.5692    0.0000 C   0  0  0  0  0  0  0  0  0  0  0  0
    3.2380   -2.7940    0.0000 C   0  0  0  0  0  0  0  0  0  0  0  0
    3.4516   -1.9971    0.0000 H   0  0  0  0  0  0  0  0  0  0  0  0
    4.0505   -2.6507    0.0000 C   0  0  0  0  0  0  0  0  0  0  0  0
    4.6708   -2.1068    0.0000 H   0  0  0  0  0  0  0  0  0  0  0  0
    4.5808   -3.2827    0.0000 C   0  0  0  0  0  0  0  0  0  0  0  0
    5.3933   -3.1395    0.0000 H   0  0  0  0  0  0  0  0  0  0  0  0
    4.2986   -4.0580    0.0000 C   0  0  0  0  0  0  0  0  0  0  0  0
    4.8289   -4.6900    0.0000 Cl  0  0  0  0  0  0  0  0  0  0  0  0
    3.4862   -4.2012    0.0000 C   0  0  0  0  0  0  0  0  0  0  0  0
    3.2040   -4.9765    0.0000 H   0  0  0  0  0  0  0  0  0  0  0  0
    1.4289   -4.1250    0.0000 C   0  0  0  0  0  0  0  0  0  0  0  0
    2.0626   -4.6533    0.0000 H   0  0  0  0  0  0  0  0  0  0  0  0
    1.4289   -3.3000    0.0000 H   0  0  0  0  0  0  0  0  0  0  0  0
    0.7145   -3.7125    0.0000 C   0  0  0  0  0  0  0  0  0  0  0  0
   -0.1091   -3.7605    0.0000 H   0  0  0  0  0  0  0  0  0  0  0  0
    0.2611   -4.4018    0.0000 H   0  0  0  0  0  0  0  0  0  0  0  0
    0.7145   -2.8875    0.0000 C   0  0  0  0  0  0  0  0  0  0  0  0
    0.2611   -2.1982    0.0000 H   0  0  0  0  0  0  0  0  0  0  0  0
   -0.1091   -2.8395    0.0000 H   0  0  0  0  0  0  0  0  0  0  0  0
    1.4289   -2.4750    0.0000 N   0  0  0  0  0  0  0  0  0  0  0  0
    1.4289   -1.6500    0.0000 C   0  0  0  0  0  0  0  0  0  0  0  0
    0.7145   -1.2375    0.0000 C   0  0  0  0  0  0  0  0  0  0  0  0
    0.0000   -1.6500    0.0000 H   0  0  0  0  0  0  0  0  0  0  0  0
    0.7145   -0.4125    0.0000 N   0  0  0  0  0  0  0  0  0  0  0  0
    1.4289    0.0000    0.0000 C   0  0  0  0  0  0  0  0  0  0  0  0
    1.4289    0.8250    0.0000 H   0  0  0  0  0  0  0  0  0  0  0  0
    2.1434   -0.4125    0.0000 C   0  0  0  0  0  0  0  0  0  0  0  0
    2.8579    0.0000    0.0000 C   0  0  0  0  0  0  0  0  0  0  0  0
    3.5724   -0.4125    0.0000 C   0  0  0  0  0  0  0  0  0  0  0  0
    3.5724   -1.2375    0.0000 C   0  0  0  0  0  0  0  0  0  0  0  0
    2.8579   -1.6500    0.0000 C   0  0  0  0  0  0  0  0  0  0  0  0
    2.1434   -2.0625    0.0000 H   0  0  0  0  0  0  0  0  0  0  0  0
    2.1434   -1.2375    0.0000 C   0  0  0  0  0  0  0  0  0  0  0  0
    4.3948   -1.3025    0.0000 H   0  0  0  0  0  0  0  0  0  0  0  0
    4.2868   -0.0000    0.0000 H   0  0  0  0  0  0  0  0  0  0  0  0
    2.8579    0.8250    0.0000 H   0  0  0  0  0  0  0  0  0  0  0  0
    2.1434   -2.8875    0.0000 C   0  0  0  0  0  0  0  0  0  0  0  0
    2.8579   -2.4750    0.0000 O   0  0  0  0  0  0  0  0  0  0  0  0
    1.2633   -4.5894    0.0000 H   0  0  0  0  0  0  0  0  0  0  0  0
    1.3650   -5.7517    0.0000 H   0  0  0  0  0  0  0  0  0  0  0  0
    2.5273   -5.6500    0.0000 H   0  0  0  0  0  0  0  0  0  0  0  0
  1  2  1  0  0  0  0
  2  3  1  0  0  0  0
  3  4  1  0  0  0  0
  4  5  2  0  0  0  0
  5  6  1  0  0  0  0
  5  7  1  0  0  0  0
  7  8  1  0  0  0  0
  7  9  2  0  0  0  0
  9 10  1  0  0  0  0
  9 11  1  0  0  0  0
 11 12  1  0  0  0  0
 11 13  2  0  0  0  0
  4 13  1  0  0  0  0
 13 14  1  0  0  0  0
  3 15  1  0  0  0  0
 15 16  1  0  0  0  0
 15 17  1  0  0  0  0
 15 18  1  0  0  0  0
 18 19  1  0  0  0  0
 18 20  1  0  0  0  0
 18 21  1  0  0  0  0
 21 22  1  0  0  0  0
 21 23  1  0  0  0  0
 21 24  1  0  0  0  0
 24 25  1  0  0  0  0
 25 26  2  0  0  0  0
 26 27  1  0  0  0  0
 26 28  1  0  0  0  0
 28 29  2  0  0  0  0
 29 30  1  0  0  0  0
 29 31  1  0  0  0  0
 31 32  2  0  0  0  0
 32 33  1  0  0  0  0
 33 34  2  0  0  0  0
 34 35  1  0  0  0  0
 35 36  1  0  0  0  0
 35 37  2  0  0  0  0
 25 37  1  0  0  0  0
 31 37  1  0  0  0  0
 34 38  1  0  0  0  0
 33 39  1  0  0  0  0
 32 40  1  0  0  0  0
 24 41  1  0  0  0  0
  3 41  1  0  0  0  0
 41 42  2  0  0  0  0
  1 43  1  0  0  0  0
  1 44  1  0  0  0  0
  1 45  1  0  0  0  0
M  END
> <Potency>
2.07787703379569

> <pIC50>
5.682380157031074

> <Outcome>
Active

> <is_active>
1

$$$$

  Mrv1921 08232120312D          

 45 48  0  0  0  0            999 V2000
    2.1434    0.4125    0.0000 C   0  0  0  0  0  0  0  0  0  0  0  0
    2.8579    0.8250    0.0000 S   0  0  0  0  0  0  0  0  0  0  0  0
    3.2704    0.1105    0.0000 O   0  0  0  0  0  0  0  0  0  0  0  0
    2.4454    1.5395    0.0000 O   0  0  0  0  0  0  0  0  0  0  0  0
    3.5724    1.2375    0.0000 C   0  0  0  0  0  0  0  0  0  0  0  0
    3.5724    2.0625    0.0000 C   0  0  0  0  0  0  0  0  0  0  0  0
    2.8579    2.4750    0.0000 H   0  0  0  0  0  0  0  0  0  0  0  0
    4.2868    2.4750    0.0000 C   0  0  0  0  0  0  0  0  0  0  0  0
    4.2868    3.3000    0.0000 H   0  0  0  0  0  0  0  0  0  0  0  0
    5.0013    2.0625    0.0000 C   0  0  0  0  0  0  0  0  0  0  0  0
    5.7158    2.4750    0.0000 C   0  0  0  0  0  0  0  0  0  0  0  0
    6.4302    2.0625    0.0000 N   0  0  0  0  0  0  0  0  0  0  0  0
    6.4302    1.2375    0.0000 C   0  0  0  0  0  0  0  0  0  0  0  0
    5.7158    0.8250    0.0000 C   0  0  0  0  0  0  0  0  0  0  0  0
    5.7158    0.0000    0.0000 N   0  0  0  0  0  0  0  0  0  0  0  0
    5.0013   -0.4125    0.0000 C   0  0  0  0  0  0  0  0  0  0  0  0
    4.2868    0.0000    0.0000 O   0  0  0  0  0  0  0  0  0  0  0  0
    5.0013   -1.2375    0.0000 C   0  0  0  0  0  0  0  0  0  0  0  0
    5.7158   -1.6500    0.0000 C   0  0  0  0  0  0  0  0  0  0  0  0
    6.5394   -1.6020    0.0000 H   0  0  0  0  0  0  0  0  0  0  0  0
    6.1691   -0.9607    0.0000 H   0  0  0  0  0  0  0  0  0  0  0  0
    5.7158   -2.4750    0.0000 C   0  0  0  0  0  0  0  0  0  0  0  0
    6.1691   -3.1643    0.0000 H   0  0  0  0  0  0  0  0  0  0  0  0
    6.5394   -2.5230    0.0000 H   0  0  0  0  0  0  0  0  0  0  0  0
    5.0013   -2.8875    0.0000 O   0  0  0  0  0  0  0  0  0  0  0  0
    4.2868   -2.4750    0.0000 C   0  0  0  0  0  0  0  0  0  0  0  0
    3.5724   -2.8875    0.0000 C   0  0  0  0  0  0  0  0  0  0  0  0
    2.8579   -2.4750    0.0000 C   0  0  0  0  0  0  0  0  0  0  0  0
    2.1434   -2.8875    0.0000 F   0  0  0  0  0  0  0  0  0  0  0  0
    2.8579   -1.6500    0.0000 C   0  0  0  0  0  0  0  0  0  0  0  0
    2.1434   -1.2375    0.0000 Cl  0  0  0  0  0  0  0  0  0  0  0  0
    3.5724   -1.2375    0.0000 C   0  0  0  0  0  0  0  0  0  0  0  0
    3.1599   -0.5230    0.0000 H   0  0  0  0  0  0  0  0  0  0  0  0
    4.2868   -1.6500    0.0000 C   0  0  0  0  0  0  0  0  0  0  0  0
    3.5724   -3.7125    0.0000 H   0  0  0  0  0  0  0  0  0  0  0  0
    4.2868   -0.8250    0.0000 H   0  0  0  0  0  0  0  0  0  0  0  0
    6.4302   -0.4125    0.0000 H   0  0  0  0  0  0  0  0  0  0  0  0
    5.0013    1.2375    0.0000 C   0  0  0  0  0  0  0  0  0  0  0  0
    4.2868    0.8250    0.0000 C   0  0  0  0  0  0  0  0  0  0  0  0
    3.5724    0.4125    0.0000 H   0  0  0  0  0  0  0  0  0  0  0  0
    7.1447    0.8250    0.0000 H   0  0  0  0  0  0  0  0  0  0  0  0
    5.7158    3.3000    0.0000 H   0  0  0  0  0  0  0  0  0  0  0  0
    1.7309    1.1270    0.0000 H   0  0  0  0  0  0  0  0  0  0  0  0
    1.4289    0.0000    0.0000 H   0  0  0  0  0  0  0  0  0  0  0  0
    2.5559   -0.3020    0.0000 H   0  0  0  0  0  0  0  0  0  0  0  0
  1  2  1  0  0  0  0
  2  3  2  0  0  0  0
  2  4  2  0  0  0  0
  2  5  1  0  0  0  0
  5  6  2  0  0  0  0
  6  7  1  0  0  0  0
  6  8  1  0  0  0  0
  8  9  1  0  0  0  0
  8 10  2  0  0  0  0
 10 11  1  0  0  0  0
 11 12  2  0  0  0  0
 12 13  1  0  0  0  0
 13 14  2  0  0  0  0
 14 15  1  0  0  0  0
 15 16  1  0  0  0  0
 16 17  2  0  0  0  0
 16 18  1  0  0  0  0
 18 19  1  0  0  0  0
 19 20  1  0  0  0  0
 19 21  1  0  0  0  0
 19 22  1  0  0  0  0
 22 23  1  0  0  0  0
 22 24  1  0  0  0  0
 22 25  1  0  0  0  0
 25 26  1  0  0  0  0
 26 27  2  0  0  0  0
 27 28  1  0  0  0  0
 28 29  1  0  0  0  0
 28 30  2  0  0  0  0
 30 31  1  0  0  0  0
 30 32  1  0  0  0  0
 32 33  1  0  0  0  0
 32 34  2  0  0  0  0
 18 34  1  0  0  0  0
 26 34  1  0  0  0  0
 27 35  1  0  0  0  0
 18 36  1  0  0  0  0
 15 37  1  0  0  0  0
 14 38  1  0  0  0  0
 10 38  1  0  0  0  0
 38 39  2  0  0  0  0
  5 39  1  0  0  0  0
 39 40  1  0  0  0  0
 13 41  1  0  0  0  0
 11 42  1  0  0  0  0
  1 43  1  0  0  0  0
  1 44  1  0  0  0  0
  1 45  1  0  0  0  0
M  END
> <Potency>
1.55100647821834

> <pIC50>
5.8093863882285595

> <Outcome>
Active

> <is_active>
1

$$$$

  Mrv1921 08232120312D          

 53 56  0  0  0  0            999 V2000
    1.5492   -3.4962    0.0000 C   0  0  0  0  0  0  0  0  0  0  0  0
    2.2636   -3.9087    0.0000 N   0  0  0  0  0  0  0  0  0  0  0  0
    2.9781   -3.4962    0.0000 C   0  0  0  0  0  0  0  0  0  0  0  0
    2.9781   -2.6712    0.0000 O   0  0  0  0  0  0  0  0  0  0  0  0
    3.6926   -3.9087    0.0000 C   0  0  0  0  0  0  0  0  0  0  0  0
    4.4070   -3.4962    0.0000 O   0  0  0  0  0  0  0  0  0  0  0  0
    5.1215   -3.9087    0.0000 C   0  0  0  0  0  0  0  0  0  0  0  0
    5.1215   -4.7337    0.0000 C   0  0  0  0  0  0  0  0  0  0  0  0
    5.9340   -4.5904    0.0000 C   0  0  0  0  0  0  0  0  0  0  0  0
    6.4643   -5.2224    0.0000 O   0  0  0  0  0  0  0  0  0  0  0  0
    6.2161   -3.8152    0.0000 N   0  0  0  0  0  0  0  0  0  0  0  0
    5.6858   -3.1832    0.0000 C   0  0  0  0  0  0  0  0  0  0  0  0
    4.8734   -3.3265    0.0000 C   0  0  0  0  0  0  0  0  0  0  0  0
    5.1555   -2.5512    0.0000 H   0  0  0  0  0  0  0  0  0  0  0  0
    4.3431   -2.6945    0.0000 N   0  0  0  0  0  0  0  0  0  0  0  0
    4.6252   -1.9192    0.0000 C   0  0  0  0  0  0  0  0  0  0  0  0
    4.0949   -1.2873    0.0000 H   0  0  0  0  0  0  0  0  0  0  0  0
    5.4377   -1.7760    0.0000 C   0  0  0  0  0  0  0  0  0  0  0  0
    5.7199   -1.0007    0.0000 C   0  0  0  0  0  0  0  0  0  0  0  0
    6.5323   -0.8575    0.0000 C   0  0  0  0  0  0  0  0  0  0  0  0
    7.0626   -1.4895    0.0000 C   0  0  0  0  0  0  0  0  0  0  0  0
    6.7805   -2.2647    0.0000 C   0  0  0  0  0  0  0  0  0  0  0  0
    7.3108   -2.8967    0.0000 H   0  0  0  0  0  0  0  0  0  0  0  0
    5.9680   -2.4080    0.0000 C   0  0  0  0  0  0  0  0  0  0  0  0
    7.8751   -1.3462    0.0000 H   0  0  0  0  0  0  0  0  0  0  0  0
    6.8145   -0.0822    0.0000 H   0  0  0  0  0  0  0  0  0  0  0  0
    5.1896   -0.3687    0.0000 H   0  0  0  0  0  0  0  0  0  0  0  0
    7.0286   -3.6719    0.0000 H   0  0  0  0  0  0  0  0  0  0  0  0
    4.3090   -4.5904    0.0000 C   0  0  0  0  0  0  0  0  0  0  0  0
    4.5912   -5.3657    0.0000 H   0  0  0  0  0  0  0  0  0  0  0  0
    5.0235   -4.1779    0.0000 H   0  0  0  0  0  0  0  0  0  0  0  0
    3.7787   -5.2224    0.0000 C   0  0  0  0  0  0  0  0  0  0  0  0
    2.9574   -5.1444    0.0000 H   0  0  0  0  0  0  0  0  0  0  0  0
    3.2741   -5.8751    0.0000 H   0  0  0  0  0  0  0  0  0  0  0  0
    4.0609   -5.9977    0.0000 O   0  0  0  0  0  0  0  0  0  0  0  0
    4.8734   -6.1409    0.0000 C   0  0  0  0  0  0  0  0  0  0  0  0
    5.1555   -6.9162    0.0000 C   0  0  0  0  0  0  0  0  0  0  0  0
    5.9680   -7.0594    0.0000 C   0  0  0  0  0  0  0  0  0  0  0  0
    6.4983   -6.4275    0.0000 C   0  0  0  0  0  0  0  0  0  0  0  0
    7.3108   -6.5707    0.0000 Cl  0  0  0  0  0  0  0  0  0  0  0  0
    6.2161   -5.6522    0.0000 C   0  0  0  0  0  0  0  0  0  0  0  0
    7.0380   -5.7241    0.0000 H   0  0  0  0  0  0  0  0  0  0  0  0
    5.4037   -5.5090    0.0000 C   0  0  0  0  0  0  0  0  0  0  0  0
    6.2502   -7.8347    0.0000 H   0  0  0  0  0  0  0  0  0  0  0  0
    4.6252   -7.5482    0.0000 H   0  0  0  0  0  0  0  0  0  0  0  0
    5.9018   -4.1765    0.0000 H   0  0  0  0  0  0  0  0  0  0  0  0
    4.4070   -4.3212    0.0000 H   0  0  0  0  0  0  0  0  0  0  0  0
    2.9391   -4.2448    0.0000 H   0  0  0  0  0  0  0  0  0  0  0  0
    3.5222   -4.7159    0.0000 H   0  0  0  0  0  0  0  0  0  0  0  0
    2.2636   -4.7337    0.0000 H   0  0  0  0  0  0  0  0  0  0  0  0
    1.9617   -2.7817    0.0000 H   0  0  0  0  0  0  0  0  0  0  0  0
    0.8347   -3.0837    0.0000 H   0  0  0  0  0  0  0  0  0  0  0  0
    1.1367   -4.2107    0.0000 H   0  0  0  0  0  0  0  0  0  0  0  0
  1  2  1  0  0  0  0
  2  3  1  0  0  0  0
  3  4  2  0  0  0  0
  3  5  1  0  0  0  0
  5  6  1  0  0  0  0
  6  7  1  0  0  0  0
  7  8  1  0  0  0  0
  8  9  1  0  0  0  0
  9 10  2  0  0  0  0
  9 11  1  0  0  0  0
 11 12  1  0  0  0  0
 12 13  2  0  0  0  0
 13 14  1  0  0  0  0
 13 15  1  0  0  0  0
 15 16  2  0  0  0  0
 16 17  1  0  0  0  0
 16 18  1  0  0  0  0
 18 19  2  0  0  0  0
 19 20  1  0  0  0  0
 20 21  2  0  0  0  0
 21 22  1  0  0  0  0
 22 23  1  0  0  0  0
 22 24  2  0  0  0  0
 12 24  1  0  0  0  0
 18 24  1  0  0  0  0
 21 25  1  0  0  0  0
 20 26  1  0  0  0  0
 19 27  1  0  0  0  0
 11 28  1  0  0  0  0
  8 29  1  0  0  0  0
 29 30  1  0  0  0  0
 29 31  1  0  0  0  0
 29 32  1  0  0  0  0
 32 33  1  0  0  0  0
 32 34  1  0  0  0  0
 32 35  1  0  0  0  0
 35 36  1  0  0  0  0
 36 37  2  0  0  0  0
 37 38  1  0  0  0  0
 38 39  2  0  0  0  0
 39 40  1  0  0  0  0
 39 41  1  0  0  0  0
 41 42  1  0  0  0  0
 41 43  2  0  0  0  0
  8 43  1  0  0  0  0
 36 43  1  0  0  0  0
 38 44  1  0  0  0  0
 37 45  1  0  0  0  0
  7 46  1  0  0  0  0
  7 47  1  0  0  0  0
  5 48  1  0  0  0  0
  5 49  1  0  0  0  0
  2 50  1  0  0  0  0
  1 51  1  0  0  0  0
  1 52  1  0  0  0  0
  1 53  1  0  0  0  0
M  END
> <Potency>
1.82484779688296

> <pIC50>
5.738773352429637

> <Outcome>
Active

> <is_active>
1

$$$$

  Mrv1921 08232120312D          

 41 43  0  0  0  0            999 V2000
    4.2868    0.8250    0.0000 C   0  0  0  0  0  0  0  0  0  0  0  0
    3.5724    1.2375    0.0000 C   0  0  0  0  0  0  0  0  0  0  0  0
    2.8579    0.8250    0.0000 O   0  0  0  0  0  0  0  0  0  0  0  0
    3.5724    2.0625    0.0000 N   0  0  0  0  0  0  0  0  0  0  0  0
    4.2868    2.4750    0.0000 C   0  0  0  0  0  0  0  0  0  0  0  0
    5.0013    2.0625    0.0000 C   0  0  0  0  0  0  0  0  0  0  0  0
    5.7158    2.4750    0.0000 O   0  0  0  0  0  0  0  0  0  0  0  0
    5.0013    1.2375    0.0000 N   0  0  0  0  0  0  0  0  0  0  0  0
    5.7158    0.8250    0.0000 C   0  0  0  0  0  0  0  0  0  0  0  0
    6.4302    1.2375    0.0000 C   0  0  0  0  0  0  0  0  0  0  0  0
    6.8427    1.9520    0.0000 H   0  0  0  0  0  0  0  0  0  0  0  0
    7.1447    0.8250    0.0000 N   0  0  0  0  0  0  0  0  0  0  0  0
    7.1447    0.0000    0.0000 C   0  0  0  0  0  0  0  0  0  0  0  0
    7.8592   -0.4125    0.0000 H   0  0  0  0  0  0  0  0  0  0  0  0
    6.4302   -0.4125    0.0000 C   0  0  0  0  0  0  0  0  0  0  0  0
    6.4302   -1.2375    0.0000 C   0  0  0  0  0  0  0  0  0  0  0  0
    5.7158   -1.6500    0.0000 C   0  0  0  0  0  0  0  0  0  0  0  0
    5.0013   -1.2375    0.0000 C   0  0  0  0  0  0  0  0  0  0  0  0
    5.0013   -0.4125    0.0000 C   0  0  0  0  0  0  0  0  0  0  0  0
    5.7158   -0.8250    0.0000 H   0  0  0  0  0  0  0  0  0  0  0  0
    5.7158    0.0000    0.0000 C   0  0  0  0  0  0  0  0  0  0  0  0
    4.2868   -1.6500    0.0000 H   0  0  0  0  0  0  0  0  0  0  0  0
    5.7158   -2.4750    0.0000 H   0  0  0  0  0  0  0  0  0  0  0  0
    7.1447   -1.6500    0.0000 H   0  0  0  0  0  0  0  0  0  0  0  0
    5.7158    1.6500    0.0000 H   0  0  0  0  0  0  0  0  0  0  0  0
    4.2868    3.3000    0.0000 C   0  0  0  0  0  0  0  0  0  0  0  0
    3.5724    3.7125    0.0000 C   0  0  0  0  0  0  0  0  0  0  0  0
    2.8579    3.3000    0.0000 H   0  0  0  0  0  0  0  0  0  0  0  0
    3.5724    4.5375    0.0000 C   0  0  0  0  0  0  0  0  0  0  0  0
    2.8579    4.9500    0.0000 H   0  0  0  0  0  0  0  0  0  0  0  0
    4.2868    4.9500    0.0000 C   0  0  0  0  0  0  0  0  0  0  0  0
    4.2868    5.7750    0.0000 H   0  0  0  0  0  0  0  0  0  0  0  0
    5.0013    4.5375    0.0000 C   0  0  0  0  0  0  0  0  0  0  0  0
    5.7158    4.9500    0.0000 Cl  0  0  0  0  0  0  0  0  0  0  0  0
    5.0013    3.7125    0.0000 C   0  0  0  0  0  0  0  0  0  0  0  0
    5.7158    3.3000    0.0000 H   0  0  0  0  0  0  0  0  0  0  0  0
    4.2868    1.6500    0.0000 H   0  0  0  0  0  0  0  0  0  0  0  0
    2.8579    2.4750    0.0000 H   0  0  0  0  0  0  0  0  0  0  0  0
    3.5724    0.4125    0.0000 H   0  0  0  0  0  0  0  0  0  0  0  0
    4.2868    0.0000    0.0000 H   0  0  0  0  0  0  0  0  0  0  0  0
    5.0013    0.4125    0.0000 H   0  0  0  0  0  0  0  0  0  0  0  0
  1  2  1  0  0  0  0
  2  3  2  0  0  0  0
  2  4  1  0  0  0  0
  4  5  1  0  0  0  0
  5  6  1  0  0  0  0
  6  7  2  0  0  0  0
  6  8  1  0  0  0  0
  8  9  1  0  0  0  0
  9 10  2  0  0  0  0
 10 11  1  0  0  0  0
 10 12  1  0  0  0  0
 12 13  2  0  0  0  0
 13 14  1  0  0  0  0
 13 15  1  0  0  0  0
 15 16  2  0  0  0  0
 16 17  1  0  0  0  0
 17 18  2  0  0  0  0
 18 19  1  0  0  0  0
 19 20  1  0  0  0  0
 19 21  2  0  0  0  0
  9 21  1  0  0  0  0
 15 21  1  0  0  0  0
 18 22  1  0  0  0  0
 17 23  1  0  0  0  0
 16 24  1  0  0  0  0
  8 25  1  0  0  0  0
  5 26  1  0  0  0  0
 26 27  2  0  0  0  0
 27 28  1  0  0  0  0
 27 29  1  0  0  0  0
 29 30  1  0  0  0  0
 29 31  2  0  0  0  0
 31 32  1  0  0  0  0
 31 33  1  0  0  0  0
 33 34  1  0  0  0  0
 33 35  2  0  0  0  0
 26 35  1  0  0  0  0
 35 36  1  0  0  0  0
  5 37  1  0  0  0  0
  4 38  1  0  0  0  0
  1 39  1  0  0  0  0
  1 40  1  0  0  0  0
  1 41  1  0  0  0  0
M  END
> <Potency>
9.1277913374704

> <pIC50>
5.03963429650625

> <Outcome>
Active

> <is_active>
1

$$$$

  Mrv1921 08232120312D          

 65 68  0  0  0  0            999 V2000
   -2.4304    1.4228    0.0000 C   0  0  0  0  0  0  0  0  0  0  0  0
   -1.8903    0.7991    0.0000 C   0  0  0  0  0  0  0  0  0  0  0  0
   -2.5140    0.2590    0.0000 C   0  0  0  0  0  0  0  0  0  0  0  0
   -3.2968   -0.0013    0.0000 H   0  0  0  0  0  0  0  0  0  0  0  0
   -2.5730   -0.5639    0.0000 H   0  0  0  0  0  0  0  0  0  0  0  0
   -1.7763   -0.1105    0.0000 H   0  0  0  0  0  0  0  0  0  0  0  0
   -1.2667    1.3392    0.0000 C   0  0  0  0  0  0  0  0  0  0  0  0
   -1.0064    0.5564    0.0000 H   0  0  0  0  0  0  0  0  0  0  0  0
   -0.4438    1.2801    0.0000 H   0  0  0  0  0  0  0  0  0  0  0  0
   -0.8972    2.0768    0.0000 H   0  0  0  0  0  0  0  0  0  0  0  0
   -1.3502    0.1755    0.0000 C   0  0  0  0  0  0  0  0  0  0  0  0
   -0.5401    0.3314    0.0000 C   0  0  0  0  0  0  0  0  0  0  0  0
    0.2465    0.5801    0.0000 H   0  0  0  0  0  0  0  0  0  0  0  0
    0.0000   -0.2923    0.0000 C   0  0  0  0  0  0  0  0  0  0  0  0
    0.5401   -0.9159    0.0000 H   0  0  0  0  0  0  0  0  0  0  0  0
   -0.2700   -1.0718    0.0000 C   0  0  0  0  0  0  0  0  0  0  0  0
    0.2700   -1.6954    0.0000 N   0  0  0  0  0  0  0  0  0  0  0  0
    0.0000   -2.4750    0.0000 C   0  0  0  0  0  0  0  0  0  0  0  0
    0.5401   -3.0986    0.0000 O   0  0  0  0  0  0  0  0  0  0  0  0
   -0.8101   -2.6309    0.0000 C   0  0  0  0  0  0  0  0  0  0  0  0
   -1.1602   -3.3780    0.0000 C   0  0  0  0  0  0  0  0  0  0  0  0
   -0.7616   -4.1003    0.0000 H   0  0  0  0  0  0  0  0  0  0  0  0
   -1.9788   -3.2759    0.0000 O   0  0  0  0  0  0  0  0  0  0  0  0
   -2.1348   -2.4658    0.0000 C   0  0  0  0  0  0  0  0  0  0  0  0
   -2.8818   -2.1157    0.0000 H   0  0  0  0  0  0  0  0  0  0  0  0
   -1.4125   -2.0671    0.0000 N   0  0  0  0  0  0  0  0  0  0  0  0
    1.0802   -1.5395    0.0000 C   0  0  0  0  0  0  0  0  0  0  0  0
    1.6203   -2.1632    0.0000 C   0  0  0  0  0  0  0  0  0  0  0  0
    1.3502   -2.9427    0.0000 O   0  0  0  0  0  0  0  0  0  0  0  0
    2.4304   -2.0073    0.0000 N   0  0  0  0  0  0  0  0  0  0  0  0
    2.9705   -2.6309    0.0000 C   0  0  0  0  0  0  0  0  0  0  0  0
    3.7806   -2.4750    0.0000 C   0  0  0  0  0  0  0  0  0  0  0  0
    4.3207   -3.0986    0.0000 C   0  0  0  0  0  0  0  0  0  0  0  0
    5.1308   -2.9427    0.0000 C   0  0  0  0  0  0  0  0  0  0  0  0
    5.4009   -2.1632    0.0000 H   0  0  0  0  0  0  0  0  0  0  0  0
    5.6709   -3.5664    0.0000 C   0  0  0  0  0  0  0  0  0  0  0  0
    6.4811   -3.4105    0.0000 H   0  0  0  0  0  0  0  0  0  0  0  0
    5.4009   -4.3459    0.0000 C   0  0  0  0  0  0  0  0  0  0  0  0
    5.9410   -4.9696    0.0000 H   0  0  0  0  0  0  0  0  0  0  0  0
    4.5908   -4.5018    0.0000 C   0  0  0  0  0  0  0  0  0  0  0  0
    4.3207   -5.2814    0.0000 F   0  0  0  0  0  0  0  0  0  0  0  0
    4.0507   -3.8782    0.0000 C   0  0  0  0  0  0  0  0  0  0  0  0
    3.2405   -4.0341    0.0000 H   0  0  0  0  0  0  0  0  0  0  0  0
    4.3718   -1.8996    0.0000 H   0  0  0  0  0  0  0  0  0  0  0  0
    3.6721   -1.6572    0.0000 H   0  0  0  0  0  0  0  0  0  0  0  0
    2.3793   -3.2063    0.0000 H   0  0  0  0  0  0  0  0  0  0  0  0
    3.0790   -3.4487    0.0000 H   0  0  0  0  0  0  0  0  0  0  0  0
    2.7004   -1.2277    0.0000 H   0  0  0  0  0  0  0  0  0  0  0  0
    1.3502   -0.7600    0.0000 C   0  0  0  0  0  0  0  0  0  0  0  0
    0.8101   -0.1363    0.0000 C   0  0  0  0  0  0  0  0  0  0  0  0
    1.6203    0.0196    0.0000 H   0  0  0  0  0  0  0  0  0  0  0  0
    1.0802    0.6432    0.0000 C   0  0  0  0  0  0  0  0  0  0  0  0
    0.9709    1.4609    0.0000 H   0  0  0  0  0  0  0  0  0  0  0  0
    1.8903    0.7991    0.0000 N   0  0  0  0  0  0  0  0  0  0  0  0
    2.4304    0.1755    0.0000 N   0  0  0  0  0  0  0  0  0  0  0  0
    2.1604   -0.6041    0.0000 C   0  0  0  0  0  0  0  0  0  0  0  0
    1.8903   -1.3836    0.0000 H   0  0  0  0  0  0  0  0  0  0  0  0
    0.8101   -2.3191    0.0000 H   0  0  0  0  0  0  0  0  0  0  0  0
   -1.0802   -1.2277    0.0000 C   0  0  0  0  0  0  0  0  0  0  0  0
   -1.8935   -1.3660    0.0000 H   0  0  0  0  0  0  0  0  0  0  0  0
   -1.6203   -0.6041    0.0000 C   0  0  0  0  0  0  0  0  0  0  0  0
   -0.8101   -0.4482    0.0000 H   0  0  0  0  0  0  0  0  0  0  0  0
   -1.8068    1.9628    0.0000 H   0  0  0  0  0  0  0  0  0  0  0  0
   -2.9705    2.0464    0.0000 H   0  0  0  0  0  0  0  0  0  0  0  0
   -3.0540    0.8827    0.0000 H   0  0  0  0  0  0  0  0  0  0  0  0
  1  2  1  0  0  0  0
  2  3  1  0  0  0  0
  3  4  1  0  0  0  0
  3  5  1  0  0  0  0
  3  6  1  0  0  0  0
  2  7  1  0  0  0  0
  7  8  1  0  0  0  0
  7  9  1  0  0  0  0
  7 10  1  0  0  0  0
  2 11  1  0  0  0  0
 11 12  2  0  0  0  0
 12 13  1  0  0  0  0
 12 14  1  0  0  0  0
 14 15  1  0  0  0  0
 14 16  2  0  0  0  0
 16 17  1  0  0  0  0
 17 18  1  0  0  0  0
 18 19  2  0  0  0  0
 18 20  1  0  0  0  0
 20 21  2  0  0  0  0
 21 22  1  0  0  0  0
 21 23  1  0  0  0  0
 23 24  1  0  0  0  0
 24 25  1  0  0  0  0
 24 26  2  0  0  0  0
 20 26  1  0  0  0  0
 17 27  1  0  0  0  0
 27 28  1  0  0  0  0
 28 29  2  0  0  0  0
 28 30  1  0  0  0  0
 30 31  1  0  0  0  0
 31 32  1  0  0  0  0
 32 33  1  0  0  0  0
 33 34  2  0  0  0  0
 34 35  1  0  0  0  0
 34 36  1  0  0  0  0
 36 37  1  0  0  0  0
 36 38  2  0  0  0  0
 38 39  1  0  0  0  0
 38 40  1  0  0  0  0
 40 41  1  0  0  0  0
 40 42  2  0  0  0  0
 33 42  1  0  0  0  0
 42 43  1  0  0  0  0
 32 44  1  0  0  0  0
 32 45  1  0  0  0  0
 31 46  1  0  0  0  0
 31 47  1  0  0  0  0
 30 48  1  0  0  0  0
 27 49  1  0  0  0  0
 49 50  2  0  0  0  0
 50 51  1  0  0  0  0
 50 52  1  0  0  0  0
 52 53  1  0  0  0  0
 52 54  2  0  0  0  0
 54 55  1  0  0  0  0
 55 56  2  0  0  0  0
 49 56  1  0  0  0  0
 56 57  1  0  0  0  0
 27 58  1  0  0  0  0
 16 59  1  0  0  0  0
 59 60  1  0  0  0  0
 59 61  2  0  0  0  0
 11 61  1  0  0  0  0
 61 62  1  0  0  0  0
  1 63  1  0  0  0  0
  1 64  1  0  0  0  0
  1 65  1  0  0  0  0
M  END
> <Potency>
2.05437972060318

> <pIC50>
5.687319280640838

> <Outcome>
Active

> <is_active>
1

$$$$

  Mrv1921 08232120312D          

 58 62  0  0  0  0            999 V2000
    0.0000   -6.6000    0.0000 C   0  0  0  0  0  0  0  0  0  0  0  0
   -0.7145   -6.1875    0.0000 N   0  0  0  0  0  0  0  0  0  0  0  0
   -1.4289   -6.6000    0.0000 C   0  0  0  0  0  0  0  0  0  0  0  0
   -1.4289   -7.4250    0.0000 C   0  0  0  0  0  0  0  0  0  0  0  0
   -0.7145   -7.8375    0.0000 C   0  0  0  0  0  0  0  0  0  0  0  0
    0.0824   -8.0510    0.0000 H   0  0  0  0  0  0  0  0  0  0  0  0
   -0.7145   -8.6625    0.0000 C   0  0  0  0  0  0  0  0  0  0  0  0
    0.0000   -9.0750    0.0000 H   0  0  0  0  0  0  0  0  0  0  0  0
   -1.4289   -9.0750    0.0000 C   0  0  0  0  0  0  0  0  0  0  0  0
   -1.4289   -9.9000    0.0000 H   0  0  0  0  0  0  0  0  0  0  0  0
   -2.1434   -8.6625    0.0000 C   0  0  0  0  0  0  0  0  0  0  0  0
   -2.8579   -9.0750    0.0000 C   0  0  0  0  0  0  0  0  0  0  0  0
   -3.5724   -8.6625    0.0000 C   0  0  0  0  0  0  0  0  0  0  0  0
   -3.5724   -7.8375    0.0000 C   0  0  0  0  0  0  0  0  0  0  0  0
   -2.8579   -7.4250    0.0000 C   0  0  0  0  0  0  0  0  0  0  0  0
   -2.8579   -6.6000    0.0000 H   0  0  0  0  0  0  0  0  0  0  0  0
   -2.1434   -7.8375    0.0000 C   0  0  0  0  0  0  0  0  0  0  0  0
   -4.2868   -7.4250    0.0000 H   0  0  0  0  0  0  0  0  0  0  0  0
   -4.2868   -9.0750    0.0000 H   0  0  0  0  0  0  0  0  0  0  0  0
   -2.8579   -9.9000    0.0000 H   0  0  0  0  0  0  0  0  0  0  0  0
   -1.8823   -5.9107    0.0000 H   0  0  0  0  0  0  0  0  0  0  0  0
   -2.2525   -6.5520    0.0000 H   0  0  0  0  0  0  0  0  0  0  0  0
   -0.7145   -5.3625    0.0000 C   0  0  0  0  0  0  0  0  0  0  0  0
   -1.4289   -4.9500    0.0000 C   0  0  0  0  0  0  0  0  0  0  0  0
   -2.1434   -5.3625    0.0000 H   0  0  0  0  0  0  0  0  0  0  0  0
   -1.4289   -4.1250    0.0000 C   0  0  0  0  0  0  0  0  0  0  0  0
   -2.1434   -3.7125    0.0000 Cl  0  0  0  0  0  0  0  0  0  0  0  0
   -0.7145   -3.7125    0.0000 C   0  0  0  0  0  0  0  0  0  0  0  0
   -0.7145   -2.8875    0.0000 H   0  0  0  0  0  0  0  0  0  0  0  0
    0.0000   -4.1250    0.0000 C   0  0  0  0  0  0  0  0  0  0  0  0
    0.7145   -3.7125    0.0000 C   0  0  0  0  0  0  0  0  0  0  0  0
    0.7145   -2.8875    0.0000 C   0  0  0  0  0  0  0  0  0  0  0  0
    0.0000   -2.4750    0.0000 O   0  0  0  0  0  0  0  0  0  0  0  0
    1.4289   -2.4750    0.0000 N   0  0  0  0  0  0  0  0  0  0  0  0
    1.4289   -1.6500    0.0000 C   0  0  0  0  0  0  0  0  0  0  0  0
    0.7145   -1.2375    0.0000 C   0  0  0  0  0  0  0  0  0  0  0  0
    0.0000   -1.6500    0.0000 H   0  0  0  0  0  0  0  0  0  0  0  0
    0.7145   -0.4125    0.0000 N   0  0  0  0  0  0  0  0  0  0  0  0
    1.4289    0.0000    0.0000 C   0  0  0  0  0  0  0  0  0  0  0  0
    1.4289    0.8250    0.0000 H   0  0  0  0  0  0  0  0  0  0  0  0
    2.1434   -0.4125    0.0000 C   0  0  0  0  0  0  0  0  0  0  0  0
    2.8579    0.0000    0.0000 C   0  0  0  0  0  0  0  0  0  0  0  0
    3.5724   -0.4125    0.0000 C   0  0  0  0  0  0  0  0  0  0  0  0
    3.5724   -1.2375    0.0000 C   0  0  0  0  0  0  0  0  0  0  0  0
    2.8579   -1.6500    0.0000 C   0  0  0  0  0  0  0  0  0  0  0  0
    2.8579   -2.4750    0.0000 H   0  0  0  0  0  0  0  0  0  0  0  0
    2.1434   -1.2375    0.0000 C   0  0  0  0  0  0  0  0  0  0  0  0
    4.2868   -1.6500    0.0000 H   0  0  0  0  0  0  0  0  0  0  0  0
    4.2868   -0.0000    0.0000 H   0  0  0  0  0  0  0  0  0  0  0  0
    2.8579    0.8250    0.0000 H   0  0  0  0  0  0  0  0  0  0  0  0
    2.1434   -2.8875    0.0000 H   0  0  0  0  0  0  0  0  0  0  0  0
    1.1678   -4.4018    0.0000 H   0  0  0  0  0  0  0  0  0  0  0  0
    1.5381   -3.7605    0.0000 H   0  0  0  0  0  0  0  0  0  0  0  0
    0.0000   -4.9500    0.0000 C   0  0  0  0  0  0  0  0  0  0  0  0
    0.7145   -5.3625    0.0000 H   0  0  0  0  0  0  0  0  0  0  0  0
   -0.4125   -7.3145    0.0000 H   0  0  0  0  0  0  0  0  0  0  0  0
    0.7145   -7.0125    0.0000 H   0  0  0  0  0  0  0  0  0  0  0  0
    0.4125   -5.8855    0.0000 H   0  0  0  0  0  0  0  0  0  0  0  0
  1  2  1  0  0  0  0
  2  3  1  0  0  0  0
  3  4  1  0  0  0  0
  4  5  2  0  0  0  0
  5  6  1  0  0  0  0
  5  7  1  0  0  0  0
  7  8  1  0  0  0  0
  7  9  2  0  0  0  0
  9 10  1  0  0  0  0
  9 11  1  0  0  0  0
 11 12  2  0  0  0  0
 12 13  1  0  0  0  0
 13 14  2  0  0  0  0
 14 15  1  0  0  0  0
 15 16  1  0  0  0  0
 15 17  2  0  0  0  0
  4 17  1  0  0  0  0
 11 17  1  0  0  0  0
 14 18  1  0  0  0  0
 13 19  1  0  0  0  0
 12 20  1  0  0  0  0
  3 21  1  0  0  0  0
  3 22  1  0  0  0  0
  2 23  1  0  0  0  0
 23 24  2  0  0  0  0
 24 25  1  0  0  0  0
 24 26  1  0  0  0  0
 26 27  1  0  0  0  0
 26 28  2  0  0  0  0
 28 29  1  0  0  0  0
 28 30  1  0  0  0  0
 30 31  1  0  0  0  0
 31 32  1  0  0  0  0
 32 33  2  0  0  0  0
 32 34  1  0  0  0  0
 34 35  1  0  0  0  0
 35 36  2  0  0  0  0
 36 37  1  0  0  0  0
 36 38  1  0  0  0  0
 38 39  2  0  0  0  0
 39 40  1  0  0  0  0
 39 41  1  0  0  0  0
 41 42  2  0  0  0  0
 42 43  1  0  0  0  0
 43 44  2  0  0  0  0
 44 45  1  0  0  0  0
 45 46  1  0  0  0  0
 45 47  2  0  0  0  0
 35 47  1  0  0  0  0
 41 47  1  0  0  0  0
 44 48  1  0  0  0  0
 43 49  1  0  0  0  0
 42 50  1  0  0  0  0
 34 51  1  0  0  0  0
 31 52  1  0  0  0  0
 31 53  1  0  0  0  0
 30 54  2  0  0  0  0
 23 54  1  0  0  0  0
 54 55  1  0  0  0  0
  1 56  1  0  0  0  0
  1 57  1  0  0  0  0
  1 58  1  0  0  0  0
M  END
> <Potency>
3.90415236889759

> <pIC50>
5.408473241292195

> <Outcome>
Active

> <is_active>
1

$$$$

  Mrv1921 08232120312D          

 58 61  0  0  0  0            999 V2000
   -1.6500    1.8118    0.0000 C   0  0  0  0  0  0  0  0  0  0  0  0
   -1.2375    1.0974    0.0000 C   0  0  0  0  0  0  0  0  0  0  0  0
   -1.9520    0.6849    0.0000 C   0  0  0  0  0  0  0  0  0  0  0  0
   -2.7699    0.5772    0.0000 H   0  0  0  0  0  0  0  0  0  0  0  0
   -2.1655   -0.1120    0.0000 H   0  0  0  0  0  0  0  0  0  0  0  0
   -1.2975    0.1826    0.0000 H   0  0  0  0  0  0  0  0  0  0  0  0
   -0.5230    1.5099    0.0000 C   0  0  0  0  0  0  0  0  0  0  0  0
   -0.4153    0.6919    0.0000 H   0  0  0  0  0  0  0  0  0  0  0  0
    0.2739    1.2963    0.0000 H   0  0  0  0  0  0  0  0  0  0  0  0
   -0.0208    2.1644    0.0000 H   0  0  0  0  0  0  0  0  0  0  0  0
   -0.8250    0.3829    0.0000 C   0  0  0  0  0  0  0  0  0  0  0  0
    0.0000    0.3829    0.0000 C   0  0  0  0  0  0  0  0  0  0  0  0
    0.8194    0.4785    0.0000 H   0  0  0  0  0  0  0  0  0  0  0  0
    0.4125   -0.3316    0.0000 C   0  0  0  0  0  0  0  0  0  0  0  0
    0.8250   -1.0461    0.0000 H   0  0  0  0  0  0  0  0  0  0  0  0
    0.0000   -1.0461    0.0000 C   0  0  0  0  0  0  0  0  0  0  0  0
    0.4125   -1.7605    0.0000 N   0  0  0  0  0  0  0  0  0  0  0  0
    0.0000   -2.4750    0.0000 C   0  0  0  0  0  0  0  0  0  0  0  0
    0.4125   -3.1895    0.0000 O   0  0  0  0  0  0  0  0  0  0  0  0
   -0.8250   -2.4750    0.0000 C   0  0  0  0  0  0  0  0  0  0  0  0
   -1.3099   -3.1424    0.0000 C   0  0  0  0  0  0  0  0  0  0  0  0
   -1.0550   -3.9271    0.0000 H   0  0  0  0  0  0  0  0  0  0  0  0
   -2.0945   -2.8875    0.0000 O   0  0  0  0  0  0  0  0  0  0  0  0
   -2.0945   -2.0625    0.0000 C   0  0  0  0  0  0  0  0  0  0  0  0
   -2.7620   -1.5776    0.0000 H   0  0  0  0  0  0  0  0  0  0  0  0
   -1.3099   -1.8076    0.0000 N   0  0  0  0  0  0  0  0  0  0  0  0
    1.2375   -1.7605    0.0000 C   0  0  0  0  0  0  0  0  0  0  0  0
    1.6500   -2.4750    0.0000 C   0  0  0  0  0  0  0  0  0  0  0  0
    1.2375   -3.1895    0.0000 O   0  0  0  0  0  0  0  0  0  0  0  0
    2.4750   -2.4750    0.0000 N   0  0  0  0  0  0  0  0  0  0  0  0
    2.8875   -3.1895    0.0000 C   0  0  0  0  0  0  0  0  0  0  0  0
    3.6844   -3.4030    0.0000 C   0  0  0  0  0  0  0  0  0  0  0  0
    4.5094   -3.4030    0.0000 H   0  0  0  0  0  0  0  0  0  0  0  0
    4.0969   -2.6885    0.0000 H   0  0  0  0  0  0  0  0  0  0  0  0
    3.4709   -4.1999    0.0000 O   0  0  0  0  0  0  0  0  0  0  0  0
    2.6740   -3.9864    0.0000 C   0  0  0  0  0  0  0  0  0  0  0  0
    1.9931   -4.4522    0.0000 H   0  0  0  0  0  0  0  0  0  0  0  0
    2.5574   -4.8031    0.0000 H   0  0  0  0  0  0  0  0  0  0  0  0
    2.0696   -3.2972    0.0000 H   0  0  0  0  0  0  0  0  0  0  0  0
    2.8875   -1.7605    0.0000 H   0  0  0  0  0  0  0  0  0  0  0  0
    1.6500   -1.0461    0.0000 C   0  0  0  0  0  0  0  0  0  0  0  0
    1.2375   -0.3316    0.0000 C   0  0  0  0  0  0  0  0  0  0  0  0
    2.0625   -0.3316    0.0000 H   0  0  0  0  0  0  0  0  0  0  0  0
    1.6500    0.3829    0.0000 C   0  0  0  0  0  0  0  0  0  0  0  0
    1.6973    1.2065    0.0000 H   0  0  0  0  0  0  0  0  0  0  0  0
    2.4750    0.3829    0.0000 C   0  0  0  0  0  0  0  0  0  0  0  0
    2.8875    1.0974    0.0000 H   0  0  0  0  0  0  0  0  0  0  0  0
    2.8875   -0.3316    0.0000 N   0  0  0  0  0  0  0  0  0  0  0  0
    2.4750   -1.0461    0.0000 C   0  0  0  0  0  0  0  0  0  0  0  0
    2.0625   -1.7605    0.0000 H   0  0  0  0  0  0  0  0  0  0  0  0
    0.8250   -2.4750    0.0000 H   0  0  0  0  0  0  0  0  0  0  0  0
   -0.8250   -1.0461    0.0000 C   0  0  0  0  0  0  0  0  0  0  0  0
   -1.6498   -1.0281    0.0000 H   0  0  0  0  0  0  0  0  0  0  0  0
   -1.2375   -0.3316    0.0000 C   0  0  0  0  0  0  0  0  0  0  0  0
   -0.4125   -0.3316    0.0000 H   0  0  0  0  0  0  0  0  0  0  0  0
   -0.9355    2.2243    0.0000 H   0  0  0  0  0  0  0  0  0  0  0  0
   -2.0625    2.5263    0.0000 H   0  0  0  0  0  0  0  0  0  0  0  0
   -2.3645    1.3993    0.0000 H   0  0  0  0  0  0  0  0  0  0  0  0
  1  2  1  0  0  0  0
  2  3  1  0  0  0  0
  3  4  1  0  0  0  0
  3  5  1  0  0  0  0
  3  6  1  0  0  0  0
  2  7  1  0  0  0  0
  7  8  1  0  0  0  0
  7  9  1  0  0  0  0
  7 10  1  0  0  0  0
  2 11  1  0  0  0  0
 11 12  2  0  0  0  0
 12 13  1  0  0  0  0
 12 14  1  0  0  0  0
 14 15  1  0  0  0  0
 14 16  2  0  0  0  0
 16 17  1  0  0  0  0
 17 18  1  0  0  0  0
 18 19  2  0  0  0  0
 18 20  1  0  0  0  0
 20 21  2  0  0  0  0
 21 22  1  0  0  0  0
 21 23  1  0  0  0  0
 23 24  1  0  0  0  0
 24 25  1  0  0  0  0
 24 26  2  0  0  0  0
 20 26  1  0  0  0  0
 17 27  1  0  0  0  0
 27 28  1  0  0  0  0
 28 29  2  0  0  0  0
 28 30  1  0  0  0  0
 30 31  1  0  0  0  0
 31 32  1  0  0  0  0
 32 33  1  0  0  0  0
 32 34  1  0  0  0  0
 32 35  1  0  0  0  0
 35 36  1  0  0  0  0
 31 36  1  0  0  0  0
 36 37  1  0  0  0  0
 36 38  1  0  0  0  0
 31 39  1  0  0  0  0
 30 40  1  0  0  0  0
 27 41  1  0  0  0  0
 41 42  2  0  0  0  0
 42 43  1  0  0  0  0
 42 44  1  0  0  0  0
 44 45  1  0  0  0  0
 44 46  2  0  0  0  0
 46 47  1  0  0  0  0
 46 48  1  0  0  0  0
 48 49  2  0  0  0  0
 41 49  1  0  0  0  0
 49 50  1  0  0  0  0
 27 51  1  0  0  0  0
 16 52  1  0  0  0  0
 52 53  1  0  0  0  0
 52 54  2  0  0  0  0
 11 54  1  0  0  0  0
 54 55  1  0  0  0  0
  1 56  1  0  0  0  0
  1 57  1  0  0  0  0
  1 58  1  0  0  0  0
M  END
> <Potency>
4.07098207587998

> <pIC50>
5.390300809770822

> <Outcome>
Active

> <is_active>
1

$$$$

  Mrv1921 08232120312D          

 69 72  0  0  0  0            999 V2000
    1.7903   -1.2264    0.0000 C   0  0  0  0  0  0  0  0  0  0  0  0
    1.3054   -1.8938    0.0000 O   0  0  0  0  0  0  0  0  0  0  0  0
    0.4849   -1.8076    0.0000 C   0  0  0  0  0  0  0  0  0  0  0  0
    0.1494   -1.0539    0.0000 O   0  0  0  0  0  0  0  0  0  0  0  0
    0.0000   -2.4750    0.0000 C   0  0  0  0  0  0  0  0  0  0  0  0
    0.7145   -2.8875    0.0000 N   0  0  0  0  0  0  0  0  0  0  0  0
    0.7145   -3.7125    0.0000 C   0  0  0  0  0  0  0  0  0  0  0  0
    0.0000   -4.1250    0.0000 O   0  0  0  0  0  0  0  0  0  0  0  0
    1.4289   -4.1250    0.0000 C   0  0  0  0  0  0  0  0  0  0  0  0
    1.4289   -4.9500    0.0000 C   0  0  0  0  0  0  0  0  0  0  0  0
    2.1434   -5.3625    0.0000 C   0  0  0  0  0  0  0  0  0  0  0  0
    2.1434   -4.5375    0.0000 H   0  0  0  0  0  0  0  0  0  0  0  0
    2.1434   -6.1875    0.0000 C   0  0  0  0  0  0  0  0  0  0  0  0
    2.8579   -6.6000    0.0000 H   0  0  0  0  0  0  0  0  0  0  0  0
    1.4289   -6.6000    0.0000 C   0  0  0  0  0  0  0  0  0  0  0  0
    1.4289   -7.4250    0.0000 H   0  0  0  0  0  0  0  0  0  0  0  0
    0.7145   -6.1875    0.0000 N   0  0  0  0  0  0  0  0  0  0  0  0
    0.7145   -5.3625    0.0000 C   0  0  0  0  0  0  0  0  0  0  0  0
   -0.1105   -5.3625    0.0000 H   0  0  0  0  0  0  0  0  0  0  0  0
    2.1434   -3.7125    0.0000 N   0  0  0  0  0  0  0  0  0  0  0  0
    2.1434   -2.8875    0.0000 C   0  0  0  0  0  0  0  0  0  0  0  0
    1.4289   -2.4750    0.0000 O   0  0  0  0  0  0  0  0  0  0  0  0
    2.8579   -2.4750    0.0000 C   0  0  0  0  0  0  0  0  0  0  0  0
    2.9441   -1.6545    0.0000 C   0  0  0  0  0  0  0  0  0  0  0  0
    2.8104   -0.8404    0.0000 H   0  0  0  0  0  0  0  0  0  0  0  0
    3.7511   -1.4830    0.0000 O   0  0  0  0  0  0  0  0  0  0  0  0
    4.1636   -2.1975    0.0000 C   0  0  0  0  0  0  0  0  0  0  0  0
    4.9841   -2.2837    0.0000 H   0  0  0  0  0  0  0  0  0  0  0  0
    3.6116   -2.8106    0.0000 N   0  0  0  0  0  0  0  0  0  0  0  0
    2.8579   -4.1250    0.0000 C   0  0  0  0  0  0  0  0  0  0  0  0
    3.5724   -3.7125    0.0000 C   0  0  0  0  0  0  0  0  0  0  0  0
    2.8670   -3.2846    0.0000 H   0  0  0  0  0  0  0  0  0  0  0  0
    4.2868   -4.1250    0.0000 C   0  0  0  0  0  0  0  0  0  0  0  0
    5.0013   -3.7125    0.0000 H   0  0  0  0  0  0  0  0  0  0  0  0
    4.2868   -4.9500    0.0000 C   0  0  0  0  0  0  0  0  0  0  0  0
    5.0013   -5.3625    0.0000 C   0  0  0  0  0  0  0  0  0  0  0  0
    5.7158   -5.7750    0.0000 C   0  0  0  0  0  0  0  0  0  0  0  0
    5.3033   -6.4895    0.0000 H   0  0  0  0  0  0  0  0  0  0  0  0
    6.4302   -6.1875    0.0000 H   0  0  0  0  0  0  0  0  0  0  0  0
    6.1283   -5.0605    0.0000 H   0  0  0  0  0  0  0  0  0  0  0  0
    4.5888   -6.0770    0.0000 C   0  0  0  0  0  0  0  0  0  0  0  0
    4.0866   -5.4225    0.0000 H   0  0  0  0  0  0  0  0  0  0  0  0
    3.7919   -6.2905    0.0000 H   0  0  0  0  0  0  0  0  0  0  0  0
    4.4811   -6.8949    0.0000 H   0  0  0  0  0  0  0  0  0  0  0  0
    5.4138   -4.6480    0.0000 C   0  0  0  0  0  0  0  0  0  0  0  0
    6.0683   -4.1458    0.0000 H   0  0  0  0  0  0  0  0  0  0  0  0
    5.2003   -3.8511    0.0000 H   0  0  0  0  0  0  0  0  0  0  0  0
    4.5959   -4.5403    0.0000 H   0  0  0  0  0  0  0  0  0  0  0  0
    3.5724   -5.3625    0.0000 C   0  0  0  0  0  0  0  0  0  0  0  0
    2.9105   -5.8550    0.0000 H   0  0  0  0  0  0  0  0  0  0  0  0
    2.8579   -4.9500    0.0000 C   0  0  0  0  0  0  0  0  0  0  0  0
    3.5724   -4.5375    0.0000 H   0  0  0  0  0  0  0  0  0  0  0  0
    0.7145   -4.5375    0.0000 H   0  0  0  0  0  0  0  0  0  0  0  0
    0.7145   -2.0625    0.0000 H   0  0  0  0  0  0  0  0  0  0  0  0
   -0.6131   -1.9230    0.0000 C   0  0  0  0  0  0  0  0  0  0  0  0
   -0.1518   -1.2390    0.0000 H   0  0  0  0  0  0  0  0  0  0  0  0
   -0.9221   -1.1580    0.0000 H   0  0  0  0  0  0  0  0  0  0  0  0
   -1.3276   -2.3355    0.0000 C   0  0  0  0  0  0  0  0  0  0  0  0
   -1.8355   -1.6854    0.0000 H   0  0  0  0  0  0  0  0  0  0  0  0
   -2.1506   -2.3930    0.0000 H   0  0  0  0  0  0  0  0  0  0  0  0
   -1.1560   -3.1424    0.0000 C   0  0  0  0  0  0  0  0  0  0  0  0
   -1.9313   -3.4246    0.0000 H   0  0  0  0  0  0  0  0  0  0  0  0
   -1.3556   -3.9429    0.0000 H   0  0  0  0  0  0  0  0  0  0  0  0
   -0.3356   -3.2287    0.0000 C   0  0  0  0  0  0  0  0  0  0  0  0
    0.4891   -3.2537    0.0000 H   0  0  0  0  0  0  0  0  0  0  0  0
   -0.8405   -3.8811    0.0000 H   0  0  0  0  0  0  0  0  0  0  0  0
    2.4578   -1.7113    0.0000 H   0  0  0  0  0  0  0  0  0  0  0  0
    2.2752   -0.5589    0.0000 H   0  0  0  0  0  0  0  0  0  0  0  0
    1.1229   -0.7414    0.0000 H   0  0  0  0  0  0  0  0  0  0  0  0
  1  2  1  0  0  0  0
  2  3  1  0  0  0  0
  3  4  2  0  0  0  0
  3  5  1  0  0  0  0
  5  6  1  0  0  0  0
  6  7  1  0  0  0  0
  7  8  2  0  0  0  0
  7  9  1  0  0  0  0
  9 10  1  0  0  0  0
 10 11  2  0  0  0  0
 11 12  1  0  0  0  0
 11 13  1  0  0  0  0
 13 14  1  0  0  0  0
 13 15  2  0  0  0  0
 15 16  1  0  0  0  0
 15 17  1  0  0  0  0
 17 18  2  0  0  0  0
 10 18  1  0  0  0  0
 18 19  1  0  0  0  0
  9 20  1  0  0  0  0
 20 21  1  0  0  0  0
 21 22  2  0  0  0  0
 21 23  1  0  0  0  0
 23 24  2  0  0  0  0
 24 25  1  0  0  0  0
 24 26  1  0  0  0  0
 26 27  1  0  0  0  0
 27 28  1  0  0  0  0
 27 29  2  0  0  0  0
 23 29  1  0  0  0  0
 20 30  1  0  0  0  0
 30 31  2  0  0  0  0
 31 32  1  0  0  0  0
 31 33  1  0  0  0  0
 33 34  1  0  0  0  0
 33 35  2  0  0  0  0
 35 36  1  0  0  0  0
 36 37  1  0  0  0  0
 37 38  1  0  0  0  0
 37 39  1  0  0  0  0
 37 40  1  0  0  0  0
 36 41  1  0  0  0  0
 41 42  1  0  0  0  0
 41 43  1  0  0  0  0
 41 44  1  0  0  0  0
 36 45  1  0  0  0  0
 45 46  1  0  0  0  0
 45 47  1  0  0  0  0
 45 48  1  0  0  0  0
 35 49  1  0  0  0  0
 49 50  1  0  0  0  0
 49 51  2  0  0  0  0
 30 51  1  0  0  0  0
 51 52  1  0  0  0  0
  9 53  1  0  0  0  0
  6 54  1  0  0  0  0
  5 55  1  0  0  0  0
 55 56  1  0  0  0  0
 55 57  1  0  0  0  0
 55 58  1  0  0  0  0
 58 59  1  0  0  0  0
 58 60  1  0  0  0  0
 58 61  1  0  0  0  0
 61 62  1  0  0  0  0
 61 63  1  0  0  0  0
 61 64  1  0  0  0  0
  5 64  1  0  0  0  0
 64 65  1  0  0  0  0
 64 66  1  0  0  0  0
  1 67  1  0  0  0  0
  1 68  1  0  0  0  0
  1 69  1  0  0  0  0
M  END
> <Potency>
5.26495725055596

> <pIC50>
5.278605150769668

> <Outcome>
Active

> <is_active>
1

$$$$

  Mrv1921 08232120312D          

 63 66  0  0  0  0            999 V2000
   -0.3316   -0.0296    0.0000 C   0  0  0  0  0  0  0  0  0  0  0  0
    0.4934   -0.0296    0.0000 O   0  0  0  0  0  0  0  0  0  0  0  0
    0.9059   -0.7441    0.0000 C   0  0  0  0  0  0  0  0  0  0  0  0
    1.7309   -0.7441    0.0000 C   0  0  0  0  0  0  0  0  0  0  0  0
    2.1434   -0.0296    0.0000 H   0  0  0  0  0  0  0  0  0  0  0  0
    2.1434   -1.4586    0.0000 C   0  0  0  0  0  0  0  0  0  0  0  0
    2.9684   -1.4586    0.0000 H   0  0  0  0  0  0  0  0  0  0  0  0
    1.7309   -2.1730    0.0000 C   0  0  0  0  0  0  0  0  0  0  0  0
    2.1434   -2.8875    0.0000 N   0  0  0  0  0  0  0  0  0  0  0  0
    2.9684   -2.8875    0.0000 C   0  0  0  0  0  0  0  0  0  0  0  0
    3.3809   -2.1730    0.0000 O   0  0  0  0  0  0  0  0  0  0  0  0
    3.3809   -3.6020    0.0000 C   0  0  0  0  0  0  0  0  0  0  0  0
    2.9684   -4.3164    0.0000 C   0  0  0  0  0  0  0  0  0  0  0  0
    3.3809   -5.0309    0.0000 C   0  0  0  0  0  0  0  0  0  0  0  0
    3.7934   -4.3164    0.0000 H   0  0  0  0  0  0  0  0  0  0  0  0
    2.9684   -5.7454    0.0000 C   0  0  0  0  0  0  0  0  0  0  0  0
    3.3809   -6.4599    0.0000 H   0  0  0  0  0  0  0  0  0  0  0  0
    2.1434   -5.7454    0.0000 C   0  0  0  0  0  0  0  0  0  0  0  0
    1.7309   -6.4599    0.0000 H   0  0  0  0  0  0  0  0  0  0  0  0
    1.7309   -5.0309    0.0000 N   0  0  0  0  0  0  0  0  0  0  0  0
    2.1434   -4.3164    0.0000 C   0  0  0  0  0  0  0  0  0  0  0  0
    1.3184   -4.3164    0.0000 H   0  0  0  0  0  0  0  0  0  0  0  0
    4.2059   -3.6020    0.0000 N   0  0  0  0  0  0  0  0  0  0  0  0
    4.6184   -2.8875    0.0000 C   0  0  0  0  0  0  0  0  0  0  0  0
    4.2059   -2.1730    0.0000 O   0  0  0  0  0  0  0  0  0  0  0  0
    5.4434   -2.8875    0.0000 C   0  0  0  0  0  0  0  0  0  0  0  0
    5.9283   -2.2201    0.0000 C   0  0  0  0  0  0  0  0  0  0  0  0
    5.6734   -1.4354    0.0000 H   0  0  0  0  0  0  0  0  0  0  0  0
    6.7130   -2.4750    0.0000 O   0  0  0  0  0  0  0  0  0  0  0  0
    6.7130   -3.3000    0.0000 C   0  0  0  0  0  0  0  0  0  0  0  0
    7.3804   -3.7849    0.0000 H   0  0  0  0  0  0  0  0  0  0  0  0
    5.9283   -3.5549    0.0000 N   0  0  0  0  0  0  0  0  0  0  0  0
    4.6184   -4.3164    0.0000 C   0  0  0  0  0  0  0  0  0  0  0  0
    5.4434   -4.3164    0.0000 C   0  0  0  0  0  0  0  0  0  0  0  0
    5.0465   -3.5932    0.0000 H   0  0  0  0  0  0  0  0  0  0  0  0
    5.8559   -5.0309    0.0000 C   0  0  0  0  0  0  0  0  0  0  0  0
    6.6809   -5.0309    0.0000 H   0  0  0  0  0  0  0  0  0  0  0  0
    5.4434   -5.7454    0.0000 C   0  0  0  0  0  0  0  0  0  0  0  0
    5.8559   -6.4599    0.0000 C   0  0  0  0  0  0  0  0  0  0  0  0
    6.2684   -7.1743    0.0000 C   0  0  0  0  0  0  0  0  0  0  0  0
    5.5539   -7.5868    0.0000 H   0  0  0  0  0  0  0  0  0  0  0  0
    6.6809   -7.8888    0.0000 H   0  0  0  0  0  0  0  0  0  0  0  0
    6.9829   -6.7618    0.0000 H   0  0  0  0  0  0  0  0  0  0  0  0
    5.1414   -6.8724    0.0000 C   0  0  0  0  0  0  0  0  0  0  0  0
    5.0338   -6.0544    0.0000 H   0  0  0  0  0  0  0  0  0  0  0  0
    4.3446   -6.6588    0.0000 H   0  0  0  0  0  0  0  0  0  0  0  0
    4.6392   -7.5269    0.0000 H   0  0  0  0  0  0  0  0  0  0  0  0
    6.5704   -6.0474    0.0000 C   0  0  0  0  0  0  0  0  0  0  0  0
    7.3883   -5.9397    0.0000 H   0  0  0  0  0  0  0  0  0  0  0  0
    6.7839   -5.2505    0.0000 H   0  0  0  0  0  0  0  0  0  0  0  0
    5.9159   -5.5451    0.0000 H   0  0  0  0  0  0  0  0  0  0  0  0
    4.6184   -5.7454    0.0000 C   0  0  0  0  0  0  0  0  0  0  0  0
    3.7990   -5.8410    0.0000 H   0  0  0  0  0  0  0  0  0  0  0  0
    4.2059   -5.0309    0.0000 C   0  0  0  0  0  0  0  0  0  0  0  0
    5.0309   -5.0309    0.0000 H   0  0  0  0  0  0  0  0  0  0  0  0
    2.5559   -3.6020    0.0000 H   0  0  0  0  0  0  0  0  0  0  0  0
    1.7309   -3.6020    0.0000 H   0  0  0  0  0  0  0  0  0  0  0  0
    0.9059   -2.1730    0.0000 C   0  0  0  0  0  0  0  0  0  0  0  0
    0.4934   -2.8875    0.0000 H   0  0  0  0  0  0  0  0  0  0  0  0
    0.4934   -1.4586    0.0000 N   0  0  0  0  0  0  0  0  0  0  0  0
   -0.3316    0.7954    0.0000 H   0  0  0  0  0  0  0  0  0  0  0  0
   -1.1566   -0.0296    0.0000 H   0  0  0  0  0  0  0  0  0  0  0  0
   -0.3316   -0.8546    0.0000 H   0  0  0  0  0  0  0  0  0  0  0  0
  1  2  1  0  0  0  0
  2  3  1  0  0  0  0
  3  4  2  0  0  0  0
  4  5  1  0  0  0  0
  4  6  1  0  0  0  0
  6  7  1  0  0  0  0
  6  8  2  0  0  0  0
  8  9  1  0  0  0  0
  9 10  1  0  0  0  0
 10 11  2  0  0  0  0
 10 12  1  0  0  0  0
 12 13  1  0  0  0  0
 13 14  2  0  0  0  0
 14 15  1  0  0  0  0
 14 16  1  0  0  0  0
 16 17  1  0  0  0  0
 16 18  2  0  0  0  0
 18 19  1  0  0  0  0
 18 20  1  0  0  0  0
 20 21  2  0  0  0  0
 13 21  1  0  0  0  0
 21 22  1  0  0  0  0
 12 23  1  0  0  0  0
 23 24  1  0  0  0  0
 24 25  2  0  0  0  0
 24 26  1  0  0  0  0
 26 27  2  0  0  0  0
 27 28  1  0  0  0  0
 27 29  1  0  0  0  0
 29 30  1  0  0  0  0
 30 31  1  0  0  0  0
 30 32  2  0  0  0  0
 26 32  1  0  0  0  0
 23 33  1  0  0  0  0
 33 34  2  0  0  0  0
 34 35  1  0  0  0  0
 34 36  1  0  0  0  0
 36 37  1  0  0  0  0
 36 38  2  0  0  0  0
 38 39  1  0  0  0  0
 39 40  1  0  0  0  0
 40 41  1  0  0  0  0
 40 42  1  0  0  0  0
 40 43  1  0  0  0  0
 39 44  1  0  0  0  0
 44 45  1  0  0  0  0
 44 46  1  0  0  0  0
 44 47  1  0  0  0  0
 39 48  1  0  0  0  0
 48 49  1  0  0  0  0
 48 50  1  0  0  0  0
 48 51  1  0  0  0  0
 38 52  1  0  0  0  0
 52 53  1  0  0  0  0
 52 54  2  0  0  0  0
 33 54  1  0  0  0  0
 54 55  1  0  0  0  0
 12 56  1  0  0  0  0
  9 57  1  0  0  0  0
  8 58  1  0  0  0  0
 58 59  1  0  0  0  0
 58 60  2  0  0  0  0
  3 60  1  0  0  0  0
  1 61  1  0  0  0  0
  1 62  1  0  0  0  0
  1 63  1  0  0  0  0
M  END
> <Potency>
5.36624908419565

> <pIC50>
5.270329172629217

> <Outcome>
Active

> <is_active>
1

$$$$

  Mrv1921 08232120312D          

 66 71  0  0  0  0            999 V2000
    5.4666    5.5840    0.0000 O   0  0  0  0  0  0  0  0  0  0  0  0
    5.4666    4.7590    0.0000 C   0  0  0  0  0  0  0  0  0  0  0  0
    6.1811    4.3465    0.0000 C   0  0  0  0  0  0  0  0  0  0  0  0
    6.8955    4.7590    0.0000 C   0  0  0  0  0  0  0  0  0  0  0  0
    7.1777    3.9837    0.0000 C   0  0  0  0  0  0  0  0  0  0  0  0
    7.9902    3.8404    0.0000 O   0  0  0  0  0  0  0  0  0  0  0  0
    6.6474    3.3517    0.0000 N   0  0  0  0  0  0  0  0  0  0  0  0
    6.9296    2.5765    0.0000 C   0  0  0  0  0  0  0  0  0  0  0  0
    7.7420    2.4332    0.0000 C   0  0  0  0  0  0  0  0  0  0  0  0
    8.2723    3.0652    0.0000 H   0  0  0  0  0  0  0  0  0  0  0  0
    8.0242    1.6580    0.0000 N   0  0  0  0  0  0  0  0  0  0  0  0
    7.4939    1.0260    0.0000 C   0  0  0  0  0  0  0  0  0  0  0  0
    7.7761    0.2507    0.0000 H   0  0  0  0  0  0  0  0  0  0  0  0
    6.6814    1.1692    0.0000 C   0  0  0  0  0  0  0  0  0  0  0  0
    6.1511    0.5373    0.0000 C   0  0  0  0  0  0  0  0  0  0  0  0
    5.3387    0.6805    0.0000 C   0  0  0  0  0  0  0  0  0  0  0  0
    5.0565    1.4558    0.0000 C   0  0  0  0  0  0  0  0  0  0  0  0
    5.5868    2.0877    0.0000 C   0  0  0  0  0  0  0  0  0  0  0  0
    4.9388    2.5983    0.0000 H   0  0  0  0  0  0  0  0  0  0  0  0
    6.3993    1.9445    0.0000 C   0  0  0  0  0  0  0  0  0  0  0  0
    4.2440    1.5990    0.0000 H   0  0  0  0  0  0  0  0  0  0  0  0
    4.8084    0.0485    0.0000 H   0  0  0  0  0  0  0  0  0  0  0  0
    6.4333   -0.2380    0.0000 H   0  0  0  0  0  0  0  0  0  0  0  0
    6.0790    2.7538    0.0000 H   0  0  0  0  0  0  0  0  0  0  0  0
    6.3652    5.3909    0.0000 C   0  0  0  0  0  0  0  0  0  0  0  0
    5.9396    4.6842    0.0000 H   0  0  0  0  0  0  0  0  0  0  0  0
    7.1777    5.5342    0.0000 H   0  0  0  0  0  0  0  0  0  0  0  0
    6.6474    6.1662    0.0000 C   0  0  0  0  0  0  0  0  0  0  0  0
    6.4572    6.9690    0.0000 H   0  0  0  0  0  0  0  0  0  0  0  0
    5.8899    6.4930    0.0000 H   0  0  0  0  0  0  0  0  0  0  0  0
    7.4599    6.3094    0.0000 O   0  0  0  0  0  0  0  0  0  0  0  0
    7.9902    5.6775    0.0000 C   0  0  0  0  0  0  0  0  0  0  0  0
    8.8026    5.8207    0.0000 C   0  0  0  0  0  0  0  0  0  0  0  0
    9.3329    5.1887    0.0000 C   0  0  0  0  0  0  0  0  0  0  0  0
    9.0508    4.4135    0.0000 C   0  0  0  0  0  0  0  0  0  0  0  0
    9.5811    3.7815    0.0000 Cl  0  0  0  0  0  0  0  0  0  0  0  0
    8.2383    4.2702    0.0000 C   0  0  0  0  0  0  0  0  0  0  0  0
    8.7115    3.5944    0.0000 H   0  0  0  0  0  0  0  0  0  0  0  0
    7.7080    4.9022    0.0000 C   0  0  0  0  0  0  0  0  0  0  0  0
   10.1454    5.3320    0.0000 H   0  0  0  0  0  0  0  0  0  0  0  0
    9.0848    6.5960    0.0000 H   0  0  0  0  0  0  0  0  0  0  0  0
    5.8108    3.6092    0.0000 H   0  0  0  0  0  0  0  0  0  0  0  0
    6.5513    3.6092    0.0000 H   0  0  0  0  0  0  0  0  0  0  0  0
    4.7521    4.3465    0.0000 N   0  0  0  0  0  0  0  0  0  0  0  0
    4.7521    3.5215    0.0000 C   0  0  0  0  0  0  0  0  0  0  0  0
    5.5150    3.2073    0.0000 H   0  0  0  0  0  0  0  0  0  0  0  0
    5.4376    3.9805    0.0000 H   0  0  0  0  0  0  0  0  0  0  0  0
    4.0377    3.1090    0.0000 C   0  0  0  0  0  0  0  0  0  0  0  0
    3.6674    2.3717    0.0000 H   0  0  0  0  0  0  0  0  0  0  0  0
    4.4079    2.3717    0.0000 H   0  0  0  0  0  0  0  0  0  0  0  0
    3.3232    3.5215    0.0000 C   0  0  0  0  0  0  0  0  0  0  0  0
    2.5386    3.2665    0.0000 C   0  0  0  0  0  0  0  0  0  0  0  0
    2.0536    3.9340    0.0000 S   0  0  0  0  0  0  0  0  0  0  0  0
    1.4406    3.3819    0.0000 O   0  0  0  0  0  0  0  0  0  0  0  0
    1.4406    4.4860    0.0000 O   0  0  0  0  0  0  0  0  0  0  0  0
    2.5386    4.6014    0.0000 C   0  0  0  0  0  0  0  0  0  0  0  0
    2.6818    5.4139    0.0000 H   0  0  0  0  0  0  0  0  0  0  0  0
    1.9451    5.1745    0.0000 H   0  0  0  0  0  0  0  0  0  0  0  0
    3.3232    4.3465    0.0000 C   0  0  0  0  0  0  0  0  0  0  0  0
    3.2370    5.1669    0.0000 H   0  0  0  0  0  0  0  0  0  0  0  0
    4.0377    4.7590    0.0000 C   0  0  0  0  0  0  0  0  0  0  0  0
    4.6587    5.3020    0.0000 H   0  0  0  0  0  0  0  0  0  0  0  0
    4.1549    5.5756    0.0000 H   0  0  0  0  0  0  0  0  0  0  0  0
    1.9451    2.6934    0.0000 H   0  0  0  0  0  0  0  0  0  0  0  0
    2.6818    2.4540    0.0000 H   0  0  0  0  0  0  0  0  0  0  0  0
    4.0377    3.9340    0.0000 H   0  0  0  0  0  0  0  0  0  0  0  0
  1  2  2  0  0  0  0
  2  3  1  0  0  0  0
  3  4  1  0  0  0  0
  4  5  1  0  0  0  0
  5  6  2  0  0  0  0
  5  7  1  0  0  0  0
  7  8  1  0  0  0  0
  8  9  2  0  0  0  0
  9 10  1  0  0  0  0
  9 11  1  0  0  0  0
 11 12  2  0  0  0  0
 12 13  1  0  0  0  0
 12 14  1  0  0  0  0
 14 15  2  0  0  0  0
 15 16  1  0  0  0  0
 16 17  2  0  0  0  0
 17 18  1  0  0  0  0
 18 19  1  0  0  0  0
 18 20  2  0  0  0  0
  8 20  1  0  0  0  0
 14 20  1  0  0  0  0
 17 21  1  0  0  0  0
 16 22  1  0  0  0  0
 15 23  1  0  0  0  0
  7 24  1  0  0  0  0
  4 25  1  0  0  0  0
 25 26  1  0  0  0  0
 25 27  1  0  0  0  0
 25 28  1  0  0  0  0
 28 29  1  0  0  0  0
 28 30  1  0  0  0  0
 28 31  1  0  0  0  0
 31 32  1  0  0  0  0
 32 33  2  0  0  0  0
 33 34  1  0  0  0  0
 34 35  2  0  0  0  0
 35 36  1  0  0  0  0
 35 37  1  0  0  0  0
 37 38  1  0  0  0  0
 37 39  2  0  0  0  0
  4 39  1  0  0  0  0
 32 39  1  0  0  0  0
 34 40  1  0  0  0  0
 33 41  1  0  0  0  0
  3 42  1  0  0  0  0
  3 43  1  0  0  0  0
  2 44  1  0  0  0  0
 44 45  1  0  0  0  0
 45 46  1  0  0  0  0
 45 47  1  0  0  0  0
 45 48  1  0  0  0  0
 48 49  1  0  0  0  0
 48 50  1  0  0  0  0
 48 51  1  0  0  0  0
 51 52  1  0  0  0  0
 52 53  1  0  0  0  0
 53 54  2  0  0  0  0
 53 55  2  0  0  0  0
 53 56  1  0  0  0  0
 56 57  1  0  0  0  0
 56 58  1  0  0  0  0
 56 59  1  0  0  0  0
 51 59  1  0  0  0  0
 59 60  1  0  0  0  0
 59 61  1  0  0  0  0
 44 61  1  0  0  0  0
 61 62  1  0  0  0  0
 61 63  1  0  0  0  0
 52 64  1  0  0  0  0
 52 65  1  0  0  0  0
 51 66  1  0  0  0  0
M  END
> <Potency>
1.66846104269527

> <pIC50>
5.7776839293388225

> <Outcome>
Active

> <is_active>
1

$$$$

  Mrv1921 08232120312D          

 41 43  0  0  0  0            999 V2000
    0.0000   -6.6000    0.0000 C   0  0  0  0  0  0  0  0  0  0  0  0
    0.7145   -6.1875    0.0000 C   0  0  0  0  0  0  0  0  0  0  0  0
    0.7145   -5.3625    0.0000 O   0  0  0  0  0  0  0  0  0  0  0  0
    0.0000   -4.9500    0.0000 C   0  0  0  0  0  0  0  0  0  0  0  0
   -0.7145   -5.3625    0.0000 C   0  0  0  0  0  0  0  0  0  0  0  0
   -0.7145   -6.1875    0.0000 Cl  0  0  0  0  0  0  0  0  0  0  0  0
   -1.4289   -4.9500    0.0000 C   0  0  0  0  0  0  0  0  0  0  0  0
   -2.1434   -5.3625    0.0000 H   0  0  0  0  0  0  0  0  0  0  0  0
   -1.4289   -4.1250    0.0000 C   0  0  0  0  0  0  0  0  0  0  0  0
   -2.1434   -3.7125    0.0000 H   0  0  0  0  0  0  0  0  0  0  0  0
   -0.7145   -3.7125    0.0000 C   0  0  0  0  0  0  0  0  0  0  0  0
   -0.7145   -2.8875    0.0000 H   0  0  0  0  0  0  0  0  0  0  0  0
    0.0000   -4.1250    0.0000 C   0  0  0  0  0  0  0  0  0  0  0  0
    0.7145   -3.7125    0.0000 C   0  0  0  0  0  0  0  0  0  0  0  0
    0.7145   -2.8875    0.0000 C   0  0  0  0  0  0  0  0  0  0  0  0
    0.0000   -2.4750    0.0000 O   0  0  0  0  0  0  0  0  0  0  0  0
    1.4289   -2.4750    0.0000 N   0  0  0  0  0  0  0  0  0  0  0  0
    1.4289   -1.6500    0.0000 C   0  0  0  0  0  0  0  0  0  0  0  0
    0.7145   -1.2375    0.0000 C   0  0  0  0  0  0  0  0  0  0  0  0
    0.0000   -1.6500    0.0000 H   0  0  0  0  0  0  0  0  0  0  0  0
    0.7145   -0.4125    0.0000 N   0  0  0  0  0  0  0  0  0  0  0  0
    1.4289    0.0000    0.0000 C   0  0  0  0  0  0  0  0  0  0  0  0
    1.4289    0.8250    0.0000 H   0  0  0  0  0  0  0  0  0  0  0  0
    2.1434   -0.4125    0.0000 C   0  0  0  0  0  0  0  0  0  0  0  0
    2.8579    0.0000    0.0000 C   0  0  0  0  0  0  0  0  0  0  0  0
    3.5724   -0.4125    0.0000 C   0  0  0  0  0  0  0  0  0  0  0  0
    3.5724   -1.2375    0.0000 C   0  0  0  0  0  0  0  0  0  0  0  0
    2.8579   -1.6500    0.0000 C   0  0  0  0  0  0  0  0  0  0  0  0
    2.8579   -2.4750    0.0000 H   0  0  0  0  0  0  0  0  0  0  0  0
    2.1434   -1.2375    0.0000 C   0  0  0  0  0  0  0  0  0  0  0  0
    4.2868   -1.6500    0.0000 H   0  0  0  0  0  0  0  0  0  0  0  0
    4.2868   -0.0000    0.0000 H   0  0  0  0  0  0  0  0  0  0  0  0
    2.8579    0.8250    0.0000 H   0  0  0  0  0  0  0  0  0  0  0  0
    2.1434   -2.8875    0.0000 H   0  0  0  0  0  0  0  0  0  0  0  0
    1.1678   -4.4018    0.0000 H   0  0  0  0  0  0  0  0  0  0  0  0
    1.5381   -3.7605    0.0000 H   0  0  0  0  0  0  0  0  0  0  0  0
    1.4897   -6.4697    0.0000 H   0  0  0  0  0  0  0  0  0  0  0  0
    1.4897   -5.9053    0.0000 H   0  0  0  0  0  0  0  0  0  0  0  0
   -0.7145   -7.0125    0.0000 H   0  0  0  0  0  0  0  0  0  0  0  0
    0.0000   -7.4250    0.0000 H   0  0  0  0  0  0  0  0  0  0  0  0
    0.7145   -7.0125    0.0000 H   0  0  0  0  0  0  0  0  0  0  0  0
  1  2  1  0  0  0  0
  2  3  1  0  0  0  0
  3  4  1  0  0  0  0
  4  5  2  0  0  0  0
  5  6  1  0  0  0  0
  5  7  1  0  0  0  0
  7  8  1  0  0  0  0
  7  9  2  0  0  0  0
  9 10  1  0  0  0  0
  9 11  1  0  0  0  0
 11 12  1  0  0  0  0
 11 13  2  0  0  0  0
  4 13  1  0  0  0  0
 13 14  1  0  0  0  0
 14 15  1  0  0  0  0
 15 16  2  0  0  0  0
 15 17  1  0  0  0  0
 17 18  1  0  0  0  0
 18 19  2  0  0  0  0
 19 20  1  0  0  0  0
 19 21  1  0  0  0  0
 21 22  2  0  0  0  0
 22 23  1  0  0  0  0
 22 24  1  0  0  0  0
 24 25  2  0  0  0  0
 25 26  1  0  0  0  0
 26 27  2  0  0  0  0
 27 28  1  0  0  0  0
 28 29  1  0  0  0  0
 28 30  2  0  0  0  0
 18 30  1  0  0  0  0
 24 30  1  0  0  0  0
 27 31  1  0  0  0  0
 26 32  1  0  0  0  0
 25 33  1  0  0  0  0
 17 34  1  0  0  0  0
 14 35  1  0  0  0  0
 14 36  1  0  0  0  0
  2 37  1  0  0  0  0
  2 38  1  0  0  0  0
  1 39  1  0  0  0  0
  1 40  1  0  0  0  0
  1 41  1  0  0  0  0
M  END
> <Potency>
6.95899371078913

> <pIC50>
5.157453555999712

> <Outcome>
Active

> <is_active>
1

$$$$

  Mrv1921 08232120312D          

 73 77  0  0  0  0            999 V2000
    1.8564    3.8978    0.0000 C   0  0  0  0  0  0  0  0  0  0  0  0
    2.3965    3.2741    0.0000 C   0  0  0  0  0  0  0  0  0  0  0  0
    1.7729    2.7340    0.0000 C   0  0  0  0  0  0  0  0  0  0  0  0
    0.9900    2.4737    0.0000 H   0  0  0  0  0  0  0  0  0  0  0  0
    1.7138    1.9111    0.0000 H   0  0  0  0  0  0  0  0  0  0  0  0
    2.5105    2.3645    0.0000 H   0  0  0  0  0  0  0  0  0  0  0  0
    3.0202    3.8142    0.0000 C   0  0  0  0  0  0  0  0  0  0  0  0
    3.2805    3.0314    0.0000 H   0  0  0  0  0  0  0  0  0  0  0  0
    3.8430    3.7551    0.0000 H   0  0  0  0  0  0  0  0  0  0  0  0
    3.3896    4.5518    0.0000 H   0  0  0  0  0  0  0  0  0  0  0  0
    2.9366    2.6505    0.0000 C   0  0  0  0  0  0  0  0  0  0  0  0
    3.7467    2.8064    0.0000 C   0  0  0  0  0  0  0  0  0  0  0  0
    4.5333    3.0551    0.0000 H   0  0  0  0  0  0  0  0  0  0  0  0
    4.2868    2.1827    0.0000 C   0  0  0  0  0  0  0  0  0  0  0  0
    4.8269    1.5591    0.0000 H   0  0  0  0  0  0  0  0  0  0  0  0
    4.0168    1.4032    0.0000 C   0  0  0  0  0  0  0  0  0  0  0  0
    4.5569    0.7796    0.0000 N   0  0  0  0  0  0  0  0  0  0  0  0
    4.2868    0.0000    0.0000 C   0  0  0  0  0  0  0  0  0  0  0  0
    4.8269   -0.6236    0.0000 O   0  0  0  0  0  0  0  0  0  0  0  0
    3.4767   -0.1559    0.0000 C   0  0  0  0  0  0  0  0  0  0  0  0
    3.1266   -0.9030    0.0000 C   0  0  0  0  0  0  0  0  0  0  0  0
    3.5253   -1.6253    0.0000 H   0  0  0  0  0  0  0  0  0  0  0  0
    2.3080   -0.8009    0.0000 C   0  0  0  0  0  0  0  0  0  0  0  0
    1.7442   -1.4032    0.0000 H   0  0  0  0  0  0  0  0  0  0  0  0
    2.1521    0.0092    0.0000 C   0  0  0  0  0  0  0  0  0  0  0  0
    1.4050    0.3593    0.0000 H   0  0  0  0  0  0  0  0  0  0  0  0
    2.8744    0.4079    0.0000 O   0  0  0  0  0  0  0  0  0  0  0  0
    5.3670    0.9355    0.0000 C   0  0  0  0  0  0  0  0  0  0  0  0
    5.9071    0.3118    0.0000 C   0  0  0  0  0  0  0  0  0  0  0  0
    5.6370   -0.4677    0.0000 O   0  0  0  0  0  0  0  0  0  0  0  0
    6.7172    0.4677    0.0000 N   0  0  0  0  0  0  0  0  0  0  0  0
    7.2573   -0.1559    0.0000 C   0  0  0  0  0  0  0  0  0  0  0  0
    8.0675    0.0000    0.0000 C   0  0  0  0  0  0  0  0  0  0  0  0
    8.6075   -0.6236    0.0000 C   0  0  0  0  0  0  0  0  0  0  0  0
    9.4177   -0.4677    0.0000 C   0  0  0  0  0  0  0  0  0  0  0  0
    9.6877    0.3118    0.0000 H   0  0  0  0  0  0  0  0  0  0  0  0
    9.9578   -1.0914    0.0000 C   0  0  0  0  0  0  0  0  0  0  0  0
   10.7679   -0.9355    0.0000 H   0  0  0  0  0  0  0  0  0  0  0  0
    9.6877   -1.8709    0.0000 C   0  0  0  0  0  0  0  0  0  0  0  0
   10.2278   -2.4946    0.0000 H   0  0  0  0  0  0  0  0  0  0  0  0
    8.8776   -2.0268    0.0000 C   0  0  0  0  0  0  0  0  0  0  0  0
    8.6075   -2.8064    0.0000 F   0  0  0  0  0  0  0  0  0  0  0  0
    8.3375   -1.4032    0.0000 C   0  0  0  0  0  0  0  0  0  0  0  0
    7.5274   -1.5591    0.0000 H   0  0  0  0  0  0  0  0  0  0  0  0
    8.6586    0.5754    0.0000 H   0  0  0  0  0  0  0  0  0  0  0  0
    7.9589    0.8178    0.0000 H   0  0  0  0  0  0  0  0  0  0  0  0
    6.6661   -0.7313    0.0000 H   0  0  0  0  0  0  0  0  0  0  0  0
    7.3659   -0.9737    0.0000 H   0  0  0  0  0  0  0  0  0  0  0  0
    6.1771    1.0914    0.0000 H   0  0  0  0  0  0  0  0  0  0  0  0
    5.6370    1.7150    0.0000 C   0  0  0  0  0  0  0  0  0  0  0  0
    5.0970    2.3387    0.0000 C   0  0  0  0  0  0  0  0  0  0  0  0
    5.9071    2.4946    0.0000 H   0  0  0  0  0  0  0  0  0  0  0  0
    5.3670    3.1182    0.0000 N   0  0  0  0  0  0  0  0  0  0  0  0
    6.1771    3.2741    0.0000 C   0  0  0  0  0  0  0  0  0  0  0  0
    6.4472    4.0537    0.0000 H   0  0  0  0  0  0  0  0  0  0  0  0
    6.7172    2.6505    0.0000 C   0  0  0  0  0  0  0  0  0  0  0  0
    7.5274    2.8064    0.0000 C   0  0  0  0  0  0  0  0  0  0  0  0
    8.0675    2.1827    0.0000 C   0  0  0  0  0  0  0  0  0  0  0  0
    7.7974    1.4032    0.0000 C   0  0  0  0  0  0  0  0  0  0  0  0
    6.9873    1.2473    0.0000 C   0  0  0  0  0  0  0  0  0  0  0  0
    7.2573    2.0268    0.0000 H   0  0  0  0  0  0  0  0  0  0  0  0
    6.4472    1.8709    0.0000 C   0  0  0  0  0  0  0  0  0  0  0  0
    8.6220    1.3767    0.0000 H   0  0  0  0  0  0  0  0  0  0  0  0
    8.8776    2.3387    0.0000 H   0  0  0  0  0  0  0  0  0  0  0  0
    7.7974    3.5859    0.0000 H   0  0  0  0  0  0  0  0  0  0  0  0
    5.0970    0.1559    0.0000 H   0  0  0  0  0  0  0  0  0  0  0  0
    3.2066    1.2473    0.0000 C   0  0  0  0  0  0  0  0  0  0  0  0
    2.3933    1.1090    0.0000 H   0  0  0  0  0  0  0  0  0  0  0  0
    2.6666    1.8709    0.0000 C   0  0  0  0  0  0  0  0  0  0  0  0
    3.4767    2.0268    0.0000 H   0  0  0  0  0  0  0  0  0  0  0  0
    2.4801    4.4378    0.0000 H   0  0  0  0  0  0  0  0  0  0  0  0
    1.3163    4.5214    0.0000 H   0  0  0  0  0  0  0  0  0  0  0  0
    1.2328    3.3577    0.0000 H   0  0  0  0  0  0  0  0  0  0  0  0
  1  2  1  0  0  0  0
  2  3  1  0  0  0  0
  3  4  1  0  0  0  0
  3  5  1  0  0  0  0
  3  6  1  0  0  0  0
  2  7  1  0  0  0  0
  7  8  1  0  0  0  0
  7  9  1  0  0  0  0
  7 10  1  0  0  0  0
  2 11  1  0  0  0  0
 11 12  2  0  0  0  0
 12 13  1  0  0  0  0
 12 14  1  0  0  0  0
 14 15  1  0  0  0  0
 14 16  2  0  0  0  0
 16 17  1  0  0  0  0
 17 18  1  0  0  0  0
 18 19  2  0  0  0  0
 18 20  1  0  0  0  0
 20 21  2  0  0  0  0
 21 22  1  0  0  0  0
 21 23  1  0  0  0  0
 23 24  1  0  0  0  0
 23 25  2  0  0  0  0
 25 26  1  0  0  0  0
 25 27  1  0  0  0  0
 20 27  1  0  0  0  0
 17 28  1  0  0  0  0
 28 29  1  0  0  0  0
 29 30  2  0  0  0  0
 29 31  1  0  0  0  0
 31 32  1  0  0  0  0
 32 33  1  0  0  0  0
 33 34  1  0  0  0  0
 34 35  2  0  0  0  0
 35 36  1  0  0  0  0
 35 37  1  0  0  0  0
 37 38  1  0  0  0  0
 37 39  2  0  0  0  0
 39 40  1  0  0  0  0
 39 41  1  0  0  0  0
 41 42  1  0  0  0  0
 41 43  2  0  0  0  0
 34 43  1  0  0  0  0
 43 44  1  0  0  0  0
 33 45  1  0  0  0  0
 33 46  1  0  0  0  0
 32 47  1  0  0  0  0
 32 48  1  0  0  0  0
 31 49  1  0  0  0  0
 28 50  1  0  0  0  0
 50 51  2  0  0  0  0
 51 52  1  0  0  0  0
 51 53  1  0  0  0  0
 53 54  2  0  0  0  0
 54 55  1  0  0  0  0
 54 56  1  0  0  0  0
 56 57  2  0  0  0  0
 57 58  1  0  0  0  0
 58 59  2  0  0  0  0
 59 60  1  0  0  0  0
 60 61  1  0  0  0  0
 60 62  2  0  0  0  0
 50 62  1  0  0  0  0
 56 62  1  0  0  0  0
 59 63  1  0  0  0  0
 58 64  1  0  0  0  0
 57 65  1  0  0  0  0
 28 66  1  0  0  0  0
 16 67  1  0  0  0  0
 67 68  1  0  0  0  0
 67 69  2  0  0  0  0
 11 69  1  0  0  0  0
 69 70  1  0  0  0  0
  1 71  1  0  0  0  0
  1 72  1  0  0  0  0
  1 73  1  0  0  0  0
M  END
> <Potency>
0.402512793338854

> <pIC50>
6.3952203115987905

> <Outcome>
Active

> <is_active>
1

$$$$

  Mrv1921 08232120312D          

 39 42  0  0  0  0            999 V2000
    2.1434   -2.8875    0.0000 O   0  0  0  0  0  0  0  0  0  0  0  0
    1.4289   -2.4750    0.0000 C   0  0  0  0  0  0  0  0  0  0  0  0
    0.7145   -2.8875    0.0000 N   0  0  0  0  0  0  0  0  0  0  0  0
    0.7145   -3.7125    0.0000 C   0  0  0  0  0  0  0  0  0  0  0  0
    1.4289   -4.1250    0.0000 C   0  0  0  0  0  0  0  0  0  0  0  0
    2.1434   -3.7125    0.0000 H   0  0  0  0  0  0  0  0  0  0  0  0
    1.4289   -4.9500    0.0000 N   0  0  0  0  0  0  0  0  0  0  0  0
    0.7145   -5.3625    0.0000 C   0  0  0  0  0  0  0  0  0  0  0  0
    0.7145   -6.1875    0.0000 H   0  0  0  0  0  0  0  0  0  0  0  0
    0.0000   -4.9500    0.0000 C   0  0  0  0  0  0  0  0  0  0  0  0
   -0.7145   -5.3625    0.0000 C   0  0  0  0  0  0  0  0  0  0  0  0
   -1.4289   -4.9500    0.0000 C   0  0  0  0  0  0  0  0  0  0  0  0
   -1.4289   -4.1250    0.0000 C   0  0  0  0  0  0  0  0  0  0  0  0
   -0.7145   -3.7125    0.0000 C   0  0  0  0  0  0  0  0  0  0  0  0
   -0.7145   -2.8875    0.0000 H   0  0  0  0  0  0  0  0  0  0  0  0
    0.0000   -4.1250    0.0000 C   0  0  0  0  0  0  0  0  0  0  0  0
   -2.1434   -3.7125    0.0000 H   0  0  0  0  0  0  0  0  0  0  0  0
   -2.1434   -5.3625    0.0000 H   0  0  0  0  0  0  0  0  0  0  0  0
   -0.7145   -6.1875    0.0000 H   0  0  0  0  0  0  0  0  0  0  0  0
    0.0000   -2.4750    0.0000 H   0  0  0  0  0  0  0  0  0  0  0  0
    1.4289   -1.6500    0.0000 C   0  0  0  0  0  0  0  0  0  0  0  0
    0.7145   -1.2375    0.0000 C   0  0  0  0  0  0  0  0  0  0  0  0
    0.0000   -1.6500    0.0000 H   0  0  0  0  0  0  0  0  0  0  0  0
    0.7145   -0.4125    0.0000 C   0  0  0  0  0  0  0  0  0  0  0  0
    0.2611    0.2768    0.0000 H   0  0  0  0  0  0  0  0  0  0  0  0
   -0.1091   -0.3645    0.0000 H   0  0  0  0  0  0  0  0  0  0  0  0
    1.4289    0.0000    0.0000 C   0  0  0  0  0  0  0  0  0  0  0  0
    1.7992    0.7372    0.0000 H   0  0  0  0  0  0  0  0  0  0  0  0
    1.0587    0.7372    0.0000 H   0  0  0  0  0  0  0  0  0  0  0  0
    2.1434   -0.4125    0.0000 C   0  0  0  0  0  0  0  0  0  0  0  0
    2.8579    0.0000    0.0000 C   0  0  0  0  0  0  0  0  0  0  0  0
    3.5724   -0.4125    0.0000 C   0  0  0  0  0  0  0  0  0  0  0  0
    3.5724   -1.2375    0.0000 C   0  0  0  0  0  0  0  0  0  0  0  0
    4.2868   -1.6500    0.0000 Cl  0  0  0  0  0  0  0  0  0  0  0  0
    2.8579   -1.6500    0.0000 C   0  0  0  0  0  0  0  0  0  0  0  0
    2.8579   -2.4750    0.0000 H   0  0  0  0  0  0  0  0  0  0  0  0
    2.1434   -1.2375    0.0000 C   0  0  0  0  0  0  0  0  0  0  0  0
    4.2868   -0.0000    0.0000 H   0  0  0  0  0  0  0  0  0  0  0  0
    2.8579    0.8250    0.0000 H   0  0  0  0  0  0  0  0  0  0  0  0
  1  2  2  0  0  0  0
  2  3  1  0  0  0  0
  3  4  1  0  0  0  0
  4  5  2  0  0  0  0
  5  6  1  0  0  0  0
  5  7  1  0  0  0  0
  7  8  2  0  0  0  0
  8  9  1  0  0  0  0
  8 10  1  0  0  0  0
 10 11  2  0  0  0  0
 11 12  1  0  0  0  0
 12 13  2  0  0  0  0
 13 14  1  0  0  0  0
 14 15  1  0  0  0  0
 14 16  2  0  0  0  0
  4 16  1  0  0  0  0
 10 16  1  0  0  0  0
 13 17  1  0  0  0  0
 12 18  1  0  0  0  0
 11 19  1  0  0  0  0
  3 20  1  0  0  0  0
  2 21  1  0  0  0  0
 21 22  2  0  0  0  0
 22 23  1  0  0  0  0
 22 24  1  0  0  0  0
 24 25  1  0  0  0  0
 24 26  1  0  0  0  0
 24 27  1  0  0  0  0
 27 28  1  0  0  0  0
 27 29  1  0  0  0  0
 27 30  1  0  0  0  0
 30 31  2  0  0  0  0
 31 32  1  0  0  0  0
 32 33  2  0  0  0  0
 33 34  1  0  0  0  0
 33 35  1  0  0  0  0
 35 36  1  0  0  0  0
 35 37  2  0  0  0  0
 21 37  1  0  0  0  0
 30 37  1  0  0  0  0
 32 38  1  0  0  0  0
 31 39  1  0  0  0  0
M  END
> <Potency>
0.233267258722188

> <pIC50>
6.632146214288752

> <Outcome>
Active

> <is_active>
1

$$$$

  Mrv1921 08232120312D          

 45 48  0  0  0  0            999 V2000
    0.0000   -2.4750    0.0000 O   0  0  0  0  0  0  0  0  0  0  0  0
    0.7145   -2.8875    0.0000 C   0  0  0  0  0  0  0  0  0  0  0  0
    0.7145   -3.7125    0.0000 C   0  0  0  0  0  0  0  0  0  0  0  0
    0.0000   -4.1250    0.0000 C   0  0  0  0  0  0  0  0  0  0  0  0
    0.0000   -4.9500    0.0000 C   0  0  0  0  0  0  0  0  0  0  0  0
    0.7145   -5.3625    0.0000 H   0  0  0  0  0  0  0  0  0  0  0  0
   -0.7145   -5.3625    0.0000 C   0  0  0  0  0  0  0  0  0  0  0  0
   -0.7145   -6.1875    0.0000 Cl  0  0  0  0  0  0  0  0  0  0  0  0
   -1.4289   -4.9500    0.0000 C   0  0  0  0  0  0  0  0  0  0  0  0
   -2.1434   -5.3625    0.0000 H   0  0  0  0  0  0  0  0  0  0  0  0
   -1.4289   -4.1250    0.0000 C   0  0  0  0  0  0  0  0  0  0  0  0
   -2.1434   -3.7125    0.0000 C   0  0  0  0  0  0  0  0  0  0  0  0
   -2.8579   -4.1250    0.0000 C   0  0  0  0  0  0  0  0  0  0  0  0
   -3.0714   -4.9219    0.0000 C   0  0  0  0  0  0  0  0  0  0  0  0
   -3.0714   -5.7469    0.0000 H   0  0  0  0  0  0  0  0  0  0  0  0
   -2.3569   -5.3344    0.0000 H   0  0  0  0  0  0  0  0  0  0  0  0
   -3.8683   -4.7084    0.0000 C   0  0  0  0  0  0  0  0  0  0  0  0
   -4.5828   -5.1209    0.0000 O   0  0  0  0  0  0  0  0  0  0  0  0
   -3.6548   -3.9115    0.0000 N   0  0  0  0  0  0  0  0  0  0  0  0
   -4.3554   -3.4758    0.0000 H   0  0  0  0  0  0  0  0  0  0  0  0
   -2.9656   -3.3071    0.0000 H   0  0  0  0  0  0  0  0  0  0  0  0
   -1.7732   -2.9753    0.0000 H   0  0  0  0  0  0  0  0  0  0  0  0
   -2.5137   -2.9753    0.0000 H   0  0  0  0  0  0  0  0  0  0  0  0
   -0.7145   -3.7125    0.0000 C   0  0  0  0  0  0  0  0  0  0  0  0
   -0.7145   -2.8875    0.0000 H   0  0  0  0  0  0  0  0  0  0  0  0
    1.1678   -4.4018    0.0000 H   0  0  0  0  0  0  0  0  0  0  0  0
    1.5381   -3.7605    0.0000 H   0  0  0  0  0  0  0  0  0  0  0  0
    1.4289   -2.4750    0.0000 N   0  0  0  0  0  0  0  0  0  0  0  0
    1.4289   -1.6500    0.0000 C   0  0  0  0  0  0  0  0  0  0  0  0
    0.7145   -1.2375    0.0000 C   0  0  0  0  0  0  0  0  0  0  0  0
    0.0000   -1.6500    0.0000 H   0  0  0  0  0  0  0  0  0  0  0  0
    0.7145   -0.4125    0.0000 N   0  0  0  0  0  0  0  0  0  0  0  0
    1.4289    0.0000    0.0000 C   0  0  0  0  0  0  0  0  0  0  0  0
    1.4289    0.8250    0.0000 H   0  0  0  0  0  0  0  0  0  0  0  0
    2.1434   -0.4125    0.0000 C   0  0  0  0  0  0  0  0  0  0  0  0
    2.8579    0.0000    0.0000 C   0  0  0  0  0  0  0  0  0  0  0  0
    3.5724   -0.4125    0.0000 C   0  0  0  0  0  0  0  0  0  0  0  0
    3.5724   -1.2375    0.0000 C   0  0  0  0  0  0  0  0  0  0  0  0
    2.8579   -1.6500    0.0000 C   0  0  0  0  0  0  0  0  0  0  0  0
    2.8579   -2.4750    0.0000 H   0  0  0  0  0  0  0  0  0  0  0  0
    2.1434   -1.2375    0.0000 C   0  0  0  0  0  0  0  0  0  0  0  0
    4.2868   -1.6500    0.0000 H   0  0  0  0  0  0  0  0  0  0  0  0
    4.2868   -0.0000    0.0000 H   0  0  0  0  0  0  0  0  0  0  0  0
    2.8579    0.8250    0.0000 H   0  0  0  0  0  0  0  0  0  0  0  0
    2.1434   -2.8875    0.0000 H   0  0  0  0  0  0  0  0  0  0  0  0
  1  2  2  0  0  0  0
  2  3  1  0  0  0  0
  3  4  1  0  0  0  0
  4  5  2  0  0  0  0
  5  6  1  0  0  0  0
  5  7  1  0  0  0  0
  7  8  1  0  0  0  0
  7  9  2  0  0  0  0
  9 10  1  0  0  0  0
  9 11  1  0  0  0  0
 11 12  1  0  0  0  0
 12 13  1  0  0  0  0
 13 14  1  0  0  0  0
 14 15  1  0  0  0  0
 14 16  1  0  0  0  0
 14 17  1  0  0  0  0
 17 18  2  0  0  0  0
 17 19  1  0  0  0  0
 13 19  1  0  0  0  0
 19 20  1  0  0  0  0
 13 21  1  0  0  0  0
 12 22  1  0  0  0  0
 12 23  1  0  0  0  0
 11 24  2  0  0  0  0
  4 24  1  0  0  0  0
 24 25  1  0  0  0  0
  3 26  1  0  0  0  0
  3 27  1  0  0  0  0
  2 28  1  0  0  0  0
 28 29  1  0  0  0  0
 29 30  2  0  0  0  0
 30 31  1  0  0  0  0
 30 32  1  0  0  0  0
 32 33  2  0  0  0  0
 33 34  1  0  0  0  0
 33 35  1  0  0  0  0
 35 36  2  0  0  0  0
 36 37  1  0  0  0  0
 37 38  2  0  0  0  0
 38 39  1  0  0  0  0
 39 40  1  0  0  0  0
 39 41  2  0  0  0  0
 29 41  1  0  0  0  0
 35 41  1  0  0  0  0
 38 42  1  0  0  0  0
 37 43  1  0  0  0  0
 36 44  1  0  0  0  0
 28 45  1  0  0  0  0
M  END
> <Potency>
4.56705471277886

> <pIC50>
5.340363785564968

> <Outcome>
Active

> <is_active>
1

$$$$

  Mrv1921 08232120312D          

 48 51  0  0  0  0            999 V2000
   -2.8579   10.0276    0.0000 C   0  0  0  0  0  0  0  0  0  0  0  0
   -2.1434   10.4401    0.0000 C   0  0  0  0  0  0  0  0  0  0  0  0
   -2.1434   11.2651    0.0000 C   0  0  0  0  0  0  0  0  0  0  0  0
   -2.8579   11.6776    0.0000 H   0  0  0  0  0  0  0  0  0  0  0  0
   -1.4289   11.6776    0.0000 C   0  0  0  0  0  0  0  0  0  0  0  0
   -1.4289   12.5026    0.0000 H   0  0  0  0  0  0  0  0  0  0  0  0
   -0.7145   11.2651    0.0000 N   0  0  0  0  0  0  0  0  0  0  0  0
   -0.7145   10.4401    0.0000 C   0  0  0  0  0  0  0  0  0  0  0  0
   -0.0000   10.0276    0.0000 H   0  0  0  0  0  0  0  0  0  0  0  0
   -1.4289   10.0276    0.0000 C   0  0  0  0  0  0  0  0  0  0  0  0
   -1.4289    9.2026    0.0000 N   0  0  0  0  0  0  0  0  0  0  0  0
   -0.7145    8.7901    0.0000 C   0  0  0  0  0  0  0  0  0  0  0  0
   -0.0000    9.2026    0.0000 O   0  0  0  0  0  0  0  0  0  0  0  0
   -0.7145    7.9651    0.0000 C   0  0  0  0  0  0  0  0  0  0  0  0
   -0.0000    7.5526    0.0000 C   0  0  0  0  0  0  0  0  0  0  0  0
    0.7145    7.9651    0.0000 C   0  0  0  0  0  0  0  0  0  0  0  0
    0.7145    8.7901    0.0000 H   0  0  0  0  0  0  0  0  0  0  0  0
    1.4289    7.5526    0.0000 C   0  0  0  0  0  0  0  0  0  0  0  0
    2.1434    7.9651    0.0000 Cl  0  0  0  0  0  0  0  0  0  0  0  0
    1.4289    6.7276    0.0000 C   0  0  0  0  0  0  0  0  0  0  0  0
    2.1434    6.3151    0.0000 H   0  0  0  0  0  0  0  0  0  0  0  0
    0.7145    6.3151    0.0000 C   0  0  0  0  0  0  0  0  0  0  0  0
    0.7145    5.4901    0.0000 C   0  0  0  0  0  0  0  0  0  0  0  0
    1.4289    5.0776    0.0000 C   0  0  0  0  0  0  0  0  0  0  0  0
    2.1434    5.4901    0.0000 H   0  0  0  0  0  0  0  0  0  0  0  0
    1.4289    4.2526    0.0000 C   0  0  0  0  0  0  0  0  0  0  0  0
    2.1434    3.8401    0.0000 H   0  0  0  0  0  0  0  0  0  0  0  0
    0.7145    3.8401    0.0000 C   0  0  0  0  0  0  0  0  0  0  0  0
    0.7145    3.0151    0.0000 C   0  0  0  0  0  0  0  0  0  0  0  0
    1.1270    2.3007    0.0000 C   0  0  0  0  0  0  0  0  0  0  0  0
    1.4972    1.5634    0.0000 H   0  0  0  0  0  0  0  0  0  0  0  0
    1.9506    2.3486    0.0000 H   0  0  0  0  0  0  0  0  0  0  0  0
    0.3020    2.3007    0.0000 C   0  0  0  0  0  0  0  0  0  0  0  0
   -0.0467    1.5530    0.0000 F   0  0  0  0  0  0  0  0  0  0  0  0
   -0.5199    2.3726    0.0000 F   0  0  0  0  0  0  0  0  0  0  0  0
   -0.0824    3.2287    0.0000 H   0  0  0  0  0  0  0  0  0  0  0  0
    0.0000    4.2526    0.0000 C   0  0  0  0  0  0  0  0  0  0  0  0
   -0.7145    3.8401    0.0000 H   0  0  0  0  0  0  0  0  0  0  0  0
   -0.0000    5.0776    0.0000 C   0  0  0  0  0  0  0  0  0  0  0  0
   -0.7145    5.4901    0.0000 H   0  0  0  0  0  0  0  0  0  0  0  0
   -0.0000    6.7276    0.0000 C   0  0  0  0  0  0  0  0  0  0  0  0
   -0.7145    6.3151    0.0000 H   0  0  0  0  0  0  0  0  0  0  0  0
   -1.5381    7.9172    0.0000 H   0  0  0  0  0  0  0  0  0  0  0  0
   -1.1678    7.2759    0.0000 H   0  0  0  0  0  0  0  0  0  0  0  0
   -2.1434    8.7901    0.0000 H   0  0  0  0  0  0  0  0  0  0  0  0
   -3.2704   10.7421    0.0000 H   0  0  0  0  0  0  0  0  0  0  0  0
   -3.5724    9.6151    0.0000 H   0  0  0  0  0  0  0  0  0  0  0  0
   -2.4454    9.3132    0.0000 H   0  0  0  0  0  0  0  0  0  0  0  0
  1  2  1  0  0  0  0
  2  3  2  0  0  0  0
  3  4  1  0  0  0  0
  3  5  1  0  0  0  0
  5  6  1  0  0  0  0
  5  7  2  0  0  0  0
  7  8  1  0  0  0  0
  8  9  1  0  0  0  0
  8 10  2  0  0  0  0
  2 10  1  0  0  0  0
 10 11  1  0  0  0  0
 11 12  1  0  0  0  0
 12 13  2  0  0  0  0
 12 14  1  0  0  0  0
 14 15  1  0  0  0  0
 15 16  2  0  0  0  0
 16 17  1  0  0  0  0
 16 18  1  0  0  0  0
 18 19  1  0  0  0  0
 18 20  2  0  0  0  0
 20 21  1  0  0  0  0
 20 22  1  0  0  0  0
 22 23  1  0  0  0  0
 23 24  2  0  0  0  0
 24 25  1  0  0  0  0
 24 26  1  0  0  0  0
 26 27  1  0  0  0  0
 26 28  2  0  0  0  0
 28 29  1  0  0  0  0
 29 30  1  0  0  0  0
 30 31  1  0  0  0  0
 30 32  1  0  0  0  0
 30 33  1  0  0  0  0
 29 33  1  0  0  0  0
 33 34  1  0  0  0  0
 33 35  1  0  0  0  0
 29 36  1  0  0  0  0
 28 37  1  0  0  0  0
 37 38  1  0  0  0  0
 37 39  2  0  0  0  0
 23 39  1  0  0  0  0
 39 40  1  0  0  0  0
 22 41  2  0  0  0  0
 15 41  1  0  0  0  0
 41 42  1  0  0  0  0
 14 43  1  0  0  0  0
 14 44  1  0  0  0  0
 11 45  1  0  0  0  0
  1 46  1  0  0  0  0
  1 47  1  0  0  0  0
  1 48  1  0  0  0  0
M  END
> <Potency>
8.4388464044622

> <pIC50>
5.0737169176419235

> <Outcome>
Active

> <is_active>
1

$$$$

  Mrv1921 08232120312D          

 51 54  0  0  0  0            999 V2000
   -4.7229   -5.5330    0.0000 C   0  0  0  0  0  0  0  0  0  0  0  0
   -4.4679   -4.7484    0.0000 C   0  0  0  0  0  0  0  0  0  0  0  0
   -3.6610   -4.5769    0.0000 C   0  0  0  0  0  0  0  0  0  0  0  0
   -3.1089   -5.1900    0.0000 O   0  0  0  0  0  0  0  0  0  0  0  0
   -3.4060   -3.7923    0.0000 N   0  0  0  0  0  0  0  0  0  0  0  0
   -2.5990   -3.6207    0.0000 C   0  0  0  0  0  0  0  0  0  0  0  0
   -2.3441   -2.8361    0.0000 C   0  0  0  0  0  0  0  0  0  0  0  0
   -2.8961   -2.2230    0.0000 H   0  0  0  0  0  0  0  0  0  0  0  0
   -1.5371   -2.6646    0.0000 C   0  0  0  0  0  0  0  0  0  0  0  0
   -1.2822   -1.8800    0.0000 H   0  0  0  0  0  0  0  0  0  0  0  0
   -0.9851   -3.2777    0.0000 C   0  0  0  0  0  0  0  0  0  0  0  0
   -0.1781   -3.1062    0.0000 N   0  0  0  0  0  0  0  0  0  0  0  0
    0.3739   -3.7192    0.0000 C   0  0  0  0  0  0  0  0  0  0  0  0
    0.1190   -4.5039    0.0000 C   0  0  0  0  0  0  0  0  0  0  0  0
    0.6039   -5.1713    0.0000 C   0  0  0  0  0  0  0  0  0  0  0  0
    1.4289   -5.1713    0.0000 H   0  0  0  0  0  0  0  0  0  0  0  0
    0.1190   -5.8387    0.0000 C   0  0  0  0  0  0  0  0  0  0  0  0
    0.3739   -6.6234    0.0000 H   0  0  0  0  0  0  0  0  0  0  0  0
   -0.6657   -5.5838    0.0000 S   0  0  0  0  0  0  0  0  0  0  0  0
   -0.6657   -4.7588    0.0000 C   0  0  0  0  0  0  0  0  0  0  0  0
   -1.4421   -5.0377    0.0000 H   0  0  0  0  0  0  0  0  0  0  0  0
    1.1720   -3.9281    0.0000 H   0  0  0  0  0  0  0  0  0  0  0  0
    1.0181   -3.2038    0.0000 H   0  0  0  0  0  0  0  0  0  0  0  0
    0.0768   -2.3215    0.0000 C   0  0  0  0  0  0  0  0  0  0  0  0
   -0.4752   -1.7084    0.0000 O   0  0  0  0  0  0  0  0  0  0  0  0
    0.8838   -2.1500    0.0000 C   0  0  0  0  0  0  0  0  0  0  0  0
    1.1387   -1.3654    0.0000 N   0  0  0  0  0  0  0  0  0  0  0  0
    0.6538   -0.6979    0.0000 N   0  0  0  0  0  0  0  0  0  0  0  0
    1.1387   -0.0305    0.0000 N   0  0  0  0  0  0  0  0  0  0  0  0
    1.9233   -0.2854    0.0000 C   0  0  0  0  0  0  0  0  0  0  0  0
    2.6378    0.1271    0.0000 C   0  0  0  0  0  0  0  0  0  0  0  0
    3.3523   -0.2854    0.0000 C   0  0  0  0  0  0  0  0  0  0  0  0
    3.3523   -1.1104    0.0000 C   0  0  0  0  0  0  0  0  0  0  0  0
    2.6378   -1.5229    0.0000 C   0  0  0  0  0  0  0  0  0  0  0  0
    2.6378   -2.3479    0.0000 H   0  0  0  0  0  0  0  0  0  0  0  0
    1.9233   -1.1104    0.0000 C   0  0  0  0  0  0  0  0  0  0  0  0
    4.0668   -1.5229    0.0000 H   0  0  0  0  0  0  0  0  0  0  0  0
    4.0668    0.1271    0.0000 H   0  0  0  0  0  0  0  0  0  0  0  0
    2.6378    0.9521    0.0000 H   0  0  0  0  0  0  0  0  0  0  0  0
    1.1019   -2.9456    0.0000 H   0  0  0  0  0  0  0  0  0  0  0  0
    1.6523   -2.4501    0.0000 H   0  0  0  0  0  0  0  0  0  0  0  0
   -1.2400   -4.0623    0.0000 C   0  0  0  0  0  0  0  0  0  0  0  0
   -1.5120   -4.8412    0.0000 H   0  0  0  0  0  0  0  0  0  0  0  0
   -2.0470   -4.2338    0.0000 C   0  0  0  0  0  0  0  0  0  0  0  0
   -2.6631   -4.7825    0.0000 H   0  0  0  0  0  0  0  0  0  0  0  0
   -3.9580   -3.1792    0.0000 H   0  0  0  0  0  0  0  0  0  0  0  0
   -4.6861   -3.9528    0.0000 H   0  0  0  0  0  0  0  0  0  0  0  0
   -5.2364   -4.4483    0.0000 H   0  0  0  0  0  0  0  0  0  0  0  0
   -5.5075   -5.2781    0.0000 H   0  0  0  0  0  0  0  0  0  0  0  0
   -4.9778   -6.3177    0.0000 H   0  0  0  0  0  0  0  0  0  0  0  0
   -3.9382   -5.7880    0.0000 H   0  0  0  0  0  0  0  0  0  0  0  0
  1  2  1  0  0  0  0
  2  3  1  0  0  0  0
  3  4  2  0  0  0  0
  3  5  1  0  0  0  0
  5  6  1  0  0  0  0
  6  7  2  0  0  0  0
  7  8  1  0  0  0  0
  7  9  1  0  0  0  0
  9 10  1  0  0  0  0
  9 11  2  0  0  0  0
 11 12  1  0  0  0  0
 12 13  1  0  0  0  0
 13 14  1  0  0  0  0
 14 15  1  0  0  0  0
 15 16  1  0  0  0  0
 15 17  2  0  0  0  0
 17 18  1  0  0  0  0
 17 19  1  0  0  0  0
 19 20  1  0  0  0  0
 14 20  2  0  0  0  0
 20 21  1  0  0  0  0
 13 22  1  0  0  0  0
 13 23  1  0  0  0  0
 12 24  1  0  0  0  0
 24 25  2  0  0  0  0
 24 26  1  0  0  0  0
 26 27  1  0  0  0  0
 27 28  1  0  0  0  0
 28 29  2  0  0  0  0
 29 30  1  0  0  0  0
 30 31  2  0  0  0  0
 31 32  1  0  0  0  0
 32 33  2  0  0  0  0
 33 34  1  0  0  0  0
 34 35  1  0  0  0  0
 34 36  2  0  0  0  0
 27 36  1  0  0  0  0
 30 36  1  0  0  0  0
 33 37  1  0  0  0  0
 32 38  1  0  0  0  0
 31 39  1  0  0  0  0
 26 40  1  0  0  0  0
 26 41  1  0  0  0  0
 11 42  1  0  0  0  0
 42 43  1  0  0  0  0
 42 44  2  0  0  0  0
  6 44  1  0  0  0  0
 44 45  1  0  0  0  0
  5 46  1  0  0  0  0
  2 47  1  0  0  0  0
  2 48  1  0  0  0  0
  1 49  1  0  0  0  0
  1 50  1  0  0  0  0
  1 51  1  0  0  0  0
M  END
> <Potency>
1.62763709078255

> <pIC50>
5.78844242195303

> <Outcome>
Active

> <is_active>
1

$$$$

  Mrv1921 08232120312D          

 40 41  0  0  0  0            999 V2000
    1.4289   -2.4750    0.0000 C   0  0  0  0  0  0  0  0  0  0  0  0
    1.4289   -3.3000    0.0000 C   0  0  0  0  0  0  0  0  0  0  0  0
    2.1434   -3.7125    0.0000 N   0  0  0  0  0  0  0  0  0  0  0  0
    2.8579   -3.3000    0.0000 C   0  0  0  0  0  0  0  0  0  0  0  0
    2.8579   -2.4750    0.0000 O   0  0  0  0  0  0  0  0  0  0  0  0
    3.5724   -3.7125    0.0000 C   0  0  0  0  0  0  0  0  0  0  0  0
    4.2868   -3.3000    0.0000 Cl  0  0  0  0  0  0  0  0  0  0  0  0
    3.2021   -4.4497    0.0000 H   0  0  0  0  0  0  0  0  0  0  0  0
    3.9426   -4.4497    0.0000 H   0  0  0  0  0  0  0  0  0  0  0  0
    2.1434   -4.5375    0.0000 H   0  0  0  0  0  0  0  0  0  0  0  0
    0.7145   -3.7125    0.0000 C   0  0  0  0  0  0  0  0  0  0  0  0
    0.7145   -4.5375    0.0000 C   0  0  0  0  0  0  0  0  0  0  0  0
    1.4289   -4.9500    0.0000 H   0  0  0  0  0  0  0  0  0  0  0  0
    0.0000   -4.9500    0.0000 C   0  0  0  0  0  0  0  0  0  0  0  0
    0.0000   -5.7750    0.0000 Cl  0  0  0  0  0  0  0  0  0  0  0  0
   -0.7145   -4.5375    0.0000 C   0  0  0  0  0  0  0  0  0  0  0  0
   -1.4289   -4.9500    0.0000 H   0  0  0  0  0  0  0  0  0  0  0  0
   -0.7145   -3.7125    0.0000 C   0  0  0  0  0  0  0  0  0  0  0  0
   -1.4289   -3.3000    0.0000 C   0  0  0  0  0  0  0  0  0  0  0  0
   -2.1434   -3.7125    0.0000 C   0  0  0  0  0  0  0  0  0  0  0  0
   -2.1434   -4.5375    0.0000 H   0  0  0  0  0  0  0  0  0  0  0  0
   -2.8579   -3.3000    0.0000 C   0  0  0  0  0  0  0  0  0  0  0  0
   -3.5724   -3.7125    0.0000 H   0  0  0  0  0  0  0  0  0  0  0  0
   -2.8579   -2.4750    0.0000 C   0  0  0  0  0  0  0  0  0  0  0  0
   -3.5724   -2.0625    0.0000 S   0  0  0  0  0  0  0  0  0  0  0  0
   -4.2868   -1.6500    0.0000 N   0  0  0  0  0  0  0  0  0  0  0  0
   -4.2868   -0.8250    0.0000 H   0  0  0  0  0  0  0  0  0  0  0  0
   -5.0013   -2.0625    0.0000 H   0  0  0  0  0  0  0  0  0  0  0  0
   -3.1599   -1.3480    0.0000 O   0  0  0  0  0  0  0  0  0  0  0  0
   -3.9849   -2.7770    0.0000 O   0  0  0  0  0  0  0  0  0  0  0  0
   -2.1434   -2.0625    0.0000 C   0  0  0  0  0  0  0  0  0  0  0  0
   -2.1434   -1.2375    0.0000 H   0  0  0  0  0  0  0  0  0  0  0  0
   -1.4289   -2.4750    0.0000 C   0  0  0  0  0  0  0  0  0  0  0  0
   -0.7145   -2.0625    0.0000 H   0  0  0  0  0  0  0  0  0  0  0  0
    0.0000   -3.3000    0.0000 C   0  0  0  0  0  0  0  0  0  0  0  0
    0.0000   -2.4750    0.0000 H   0  0  0  0  0  0  0  0  0  0  0  0
    2.1434   -2.8875    0.0000 H   0  0  0  0  0  0  0  0  0  0  0  0
    2.2539   -2.4750    0.0000 H   0  0  0  0  0  0  0  0  0  0  0  0
    1.4289   -1.6500    0.0000 H   0  0  0  0  0  0  0  0  0  0  0  0
    0.6039   -2.4750    0.0000 H   0  0  0  0  0  0  0  0  0  0  0  0
  1  2  1  0  0  0  0
  2  3  1  0  0  0  0
  3  4  1  0  0  0  0
  4  5  2  0  0  0  0
  4  6  1  0  0  0  0
  6  7  1  0  0  0  0
  6  8  1  0  0  0  0
  6  9  1  0  0  0  0
  3 10  1  0  0  0  0
  2 11  1  0  0  0  0
 11 12  2  0  0  0  0
 12 13  1  0  0  0  0
 12 14  1  0  0  0  0
 14 15  1  0  0  0  0
 14 16  2  0  0  0  0
 16 17  1  0  0  0  0
 16 18  1  0  0  0  0
 18 19  1  0  0  0  0
 19 20  2  0  0  0  0
 20 21  1  0  0  0  0
 20 22  1  0  0  0  0
 22 23  1  0  0  0  0
 22 24  2  0  0  0  0
 24 25  1  0  0  0  0
 25 26  1  0  0  0  0
 26 27  1  0  0  0  0
 26 28  1  0  0  0  0
 25 29  2  0  0  0  0
 25 30  2  0  0  0  0
 24 31  1  0  0  0  0
 31 32  1  0  0  0  0
 31 33  2  0  0  0  0
 19 33  1  0  0  0  0
 33 34  1  0  0  0  0
 18 35  2  0  0  0  0
 11 35  1  0  0  0  0
 35 36  1  0  0  0  0
  2 37  1  0  0  0  0
  1 38  1  0  0  0  0
  1 39  1  0  0  0  0
  1 40  1  0  0  0  0
M  END
> <Potency>
0.465749846113937

> <pIC50>
6.33184727992475

> <Outcome>
Active

> <is_active>
1

$$$$

  Mrv1921 08232120312D          

 39 41  0  0  0  0            999 V2000
    2.8579   -4.1250    0.0000 C   0  0  0  0  0  0  0  0  0  0  0  0
    2.1434   -3.7125    0.0000 C   0  0  0  0  0  0  0  0  0  0  0  0
    1.4289   -4.1250    0.0000 C   0  0  0  0  0  0  0  0  0  0  0  0
    1.4289   -4.9500    0.0000 H   0  0  0  0  0  0  0  0  0  0  0  0
    0.7145   -3.7125    0.0000 C   0  0  0  0  0  0  0  0  0  0  0  0
    0.0000   -4.1250    0.0000 H   0  0  0  0  0  0  0  0  0  0  0  0
    0.7145   -2.8875    0.0000 C   0  0  0  0  0  0  0  0  0  0  0  0
    0.0000   -2.4750    0.0000 H   0  0  0  0  0  0  0  0  0  0  0  0
    1.4289   -2.4750    0.0000 C   0  0  0  0  0  0  0  0  0  0  0  0
    1.4289   -1.6500    0.0000 C   0  0  0  0  0  0  0  0  0  0  0  0
    0.7145   -1.2375    0.0000 C   0  0  0  0  0  0  0  0  0  0  0  0
   -0.1091   -1.2855    0.0000 H   0  0  0  0  0  0  0  0  0  0  0  0
    0.2611   -1.9268    0.0000 H   0  0  0  0  0  0  0  0  0  0  0  0
    0.7145   -0.4125    0.0000 N   0  0  0  0  0  0  0  0  0  0  0  0
    0.0000    0.0000    0.0000 C   0  0  0  0  0  0  0  0  0  0  0  0
   -0.7145   -0.4125    0.0000 O   0  0  0  0  0  0  0  0  0  0  0  0
    0.0000    0.8250    0.0000 C   0  0  0  0  0  0  0  0  0  0  0  0
   -0.7145    1.2375    0.0000 Cl  0  0  0  0  0  0  0  0  0  0  0  0
    0.8236    0.8730    0.0000 H   0  0  0  0  0  0  0  0  0  0  0  0
    0.4533    1.5143    0.0000 H   0  0  0  0  0  0  0  0  0  0  0  0
    1.4289    0.0000    0.0000 C   0  0  0  0  0  0  0  0  0  0  0  0
    1.7992    0.7372    0.0000 H   0  0  0  0  0  0  0  0  0  0  0  0
    1.0587    0.7372    0.0000 H   0  0  0  0  0  0  0  0  0  0  0  0
    2.1434   -0.4125    0.0000 C   0  0  0  0  0  0  0  0  0  0  0  0
    2.8579    0.0000    0.0000 C   0  0  0  0  0  0  0  0  0  0  0  0
    3.5724   -0.4125    0.0000 C   0  0  0  0  0  0  0  0  0  0  0  0
    3.5724   -1.2375    0.0000 C   0  0  0  0  0  0  0  0  0  0  0  0
    2.8579   -1.6500    0.0000 C   0  0  0  0  0  0  0  0  0  0  0  0
    3.2704   -2.3645    0.0000 H   0  0  0  0  0  0  0  0  0  0  0  0
    2.1434   -1.2375    0.0000 C   0  0  0  0  0  0  0  0  0  0  0  0
    4.2868   -1.6500    0.0000 H   0  0  0  0  0  0  0  0  0  0  0  0
    4.2868   -0.0000    0.0000 H   0  0  0  0  0  0  0  0  0  0  0  0
    2.8579    0.8250    0.0000 H   0  0  0  0  0  0  0  0  0  0  0  0
    2.1434   -2.0625    0.0000 H   0  0  0  0  0  0  0  0  0  0  0  0
    2.1434   -2.8875    0.0000 C   0  0  0  0  0  0  0  0  0  0  0  0
    2.9684   -2.8875    0.0000 H   0  0  0  0  0  0  0  0  0  0  0  0
    2.4454   -4.8395    0.0000 H   0  0  0  0  0  0  0  0  0  0  0  0
    3.5724   -4.5375    0.0000 H   0  0  0  0  0  0  0  0  0  0  0  0
    3.2704   -3.4105    0.0000 H   0  0  0  0  0  0  0  0  0  0  0  0
  1  2  1  0  0  0  0
  2  3  2  0  0  0  0
  3  4  1  0  0  0  0
  3  5  1  0  0  0  0
  5  6  1  0  0  0  0
  5  7  2  0  0  0  0
  7  8  1  0  0  0  0
  7  9  1  0  0  0  0
  9 10  1  0  0  0  0
 10 11  1  0  0  0  0
 11 12  1  0  0  0  0
 11 13  1  0  0  0  0
 11 14  1  0  0  0  0
 14 15  1  0  0  0  0
 15 16  2  0  0  0  0
 15 17  1  0  0  0  0
 17 18  1  0  0  0  0
 17 19  1  0  0  0  0
 17 20  1  0  0  0  0
 14 21  1  0  0  0  0
 21 22  1  0  0  0  0
 21 23  1  0  0  0  0
 21 24  1  0  0  0  0
 24 25  2  0  0  0  0
 25 26  1  0  0  0  0
 26 27  2  0  0  0  0
 27 28  1  0  0  0  0
 28 29  1  0  0  0  0
 28 30  2  0  0  0  0
 10 30  1  0  0  0  0
 24 30  1  0  0  0  0
 27 31  1  0  0  0  0
 26 32  1  0  0  0  0
 25 33  1  0  0  0  0
 10 34  1  0  0  0  0
  9 35  2  0  0  0  0
  2 35  1  0  0  0  0
 35 36  1  0  0  0  0
  1 37  1  0  0  0  0
  1 38  1  0  0  0  0
  1 39  1  0  0  0  0
M  END
> <Potency>
2.00412456854575

> <pIC50>
5.698075287919213

> <Outcome>
Active

> <is_active>
1

$$$$

  Mrv1921 08232120312D          

 62 66  0  0  0  0            999 V2000
   -1.5846   -2.0473    0.0000 N   0  0  0  0  0  0  0  0  0  0  0  0
   -0.7721   -1.9040    0.0000 S   0  0  0  0  0  0  0  0  0  0  0  0
   -0.6289   -2.7165    0.0000 O   0  0  0  0  0  0  0  0  0  0  0  0
   -0.9154   -1.0916    0.0000 O   0  0  0  0  0  0  0  0  0  0  0  0
    0.0403   -1.7608    0.0000 C   0  0  0  0  0  0  0  0  0  0  0  0
    0.3225   -0.9855    0.0000 C   0  0  0  0  0  0  0  0  0  0  0  0
   -0.2078   -0.3536    0.0000 H   0  0  0  0  0  0  0  0  0  0  0  0
    1.1350   -0.8423    0.0000 C   0  0  0  0  0  0  0  0  0  0  0  0
    1.4171   -0.0670    0.0000 H   0  0  0  0  0  0  0  0  0  0  0  0
    1.6653   -1.4743    0.0000 C   0  0  0  0  0  0  0  0  0  0  0  0
    2.4777   -1.3310    0.0000 C   0  0  0  0  0  0  0  0  0  0  0  0
    2.7599   -0.5558    0.0000 N   0  0  0  0  0  0  0  0  0  0  0  0
    3.5724   -0.4125    0.0000 C   0  0  0  0  0  0  0  0  0  0  0  0
    4.1027   -1.0445    0.0000 C   0  0  0  0  0  0  0  0  0  0  0  0
    4.6330   -0.4125    0.0000 C   0  0  0  0  0  0  0  0  0  0  0  0
    5.4454   -0.5558    0.0000 O   0  0  0  0  0  0  0  0  0  0  0  0
    4.3508    0.3627    0.0000 N   0  0  0  0  0  0  0  0  0  0  0  0
    3.5383    0.5060    0.0000 C   0  0  0  0  0  0  0  0  0  0  0  0
    3.0080   -0.1260    0.0000 C   0  0  0  0  0  0  0  0  0  0  0  0
    2.7259    0.6493    0.0000 H   0  0  0  0  0  0  0  0  0  0  0  0
    2.1956    0.0173    0.0000 N   0  0  0  0  0  0  0  0  0  0  0  0
    1.9134    0.7925    0.0000 C   0  0  0  0  0  0  0  0  0  0  0  0
    1.1009    0.9358    0.0000 H   0  0  0  0  0  0  0  0  0  0  0  0
    2.4437    1.4245    0.0000 C   0  0  0  0  0  0  0  0  0  0  0  0
    2.1615    2.1998    0.0000 C   0  0  0  0  0  0  0  0  0  0  0  0
    2.6918    2.8317    0.0000 C   0  0  0  0  0  0  0  0  0  0  0  0
    3.5043    2.6885    0.0000 C   0  0  0  0  0  0  0  0  0  0  0  0
    3.7865    1.9132    0.0000 C   0  0  0  0  0  0  0  0  0  0  0  0
    4.5989    1.7700    0.0000 H   0  0  0  0  0  0  0  0  0  0  0  0
    3.2562    1.2813    0.0000 C   0  0  0  0  0  0  0  0  0  0  0  0
    4.0346    3.3205    0.0000 H   0  0  0  0  0  0  0  0  0  0  0  0
    2.4097    3.6070    0.0000 H   0  0  0  0  0  0  0  0  0  0  0  0
    1.3491    2.3430    0.0000 H   0  0  0  0  0  0  0  0  0  0  0  0
    4.8811    0.9947    0.0000 H   0  0  0  0  0  0  0  0  0  0  0  0
    3.3882   -1.4570    0.0000 C   0  0  0  0  0  0  0  0  0  0  0  0
    4.1027   -1.8695    0.0000 H   0  0  0  0  0  0  0  0  0  0  0  0
    3.6704   -0.6817    0.0000 H   0  0  0  0  0  0  0  0  0  0  0  0
    3.3882   -2.2820    0.0000 C   0  0  0  0  0  0  0  0  0  0  0  0
    2.7089   -2.7502    0.0000 H   0  0  0  0  0  0  0  0  0  0  0  0
    3.4211   -3.1063    0.0000 H   0  0  0  0  0  0  0  0  0  0  0  0
    4.1027   -2.6945    0.0000 O   0  0  0  0  0  0  0  0  0  0  0  0
    4.8171   -2.2820    0.0000 C   0  0  0  0  0  0  0  0  0  0  0  0
    5.5316   -2.6945    0.0000 C   0  0  0  0  0  0  0  0  0  0  0  0
    6.2461   -2.2820    0.0000 C   0  0  0  0  0  0  0  0  0  0  0  0
    6.2461   -1.4570    0.0000 C   0  0  0  0  0  0  0  0  0  0  0  0
    6.9605   -1.0445    0.0000 Cl  0  0  0  0  0  0  0  0  0  0  0  0
    5.5316   -1.0445    0.0000 C   0  0  0  0  0  0  0  0  0  0  0  0
    6.2074   -0.5713    0.0000 H   0  0  0  0  0  0  0  0  0  0  0  0
    4.8171   -1.4570    0.0000 C   0  0  0  0  0  0  0  0  0  0  0  0
    6.9605   -2.6945    0.0000 H   0  0  0  0  0  0  0  0  0  0  0  0
    5.5316   -3.5195    0.0000 H   0  0  0  0  0  0  0  0  0  0  0  0
    4.3422   -0.1160    0.0000 H   0  0  0  0  0  0  0  0  0  0  0  0
    3.2902   -1.1877    0.0000 H   0  0  0  0  0  0  0  0  0  0  0  0
    1.9538   -0.7312    0.0000 H   0  0  0  0  0  0  0  0  0  0  0  0
    2.1166   -2.0728    0.0000 H   0  0  0  0  0  0  0  0  0  0  0  0
    2.8661   -2.0589    0.0000 H   0  0  0  0  0  0  0  0  0  0  0  0
    1.3831   -2.2495    0.0000 C   0  0  0  0  0  0  0  0  0  0  0  0
    1.5514   -3.0572    0.0000 H   0  0  0  0  0  0  0  0  0  0  0  0
    0.5706   -2.3928    0.0000 C   0  0  0  0  0  0  0  0  0  0  0  0
    0.2885   -3.1680    0.0000 F   0  0  0  0  0  0  0  0  0  0  0  0
   -2.1149   -1.4153    0.0000 H   0  0  0  0  0  0  0  0  0  0  0  0
   -1.8668   -2.8226    0.0000 H   0  0  0  0  0  0  0  0  0  0  0  0
  1  2  1  0  0  0  0
  2  3  2  0  0  0  0
  2  4  2  0  0  0  0
  2  5  1  0  0  0  0
  5  6  2  0  0  0  0
  6  7  1  0  0  0  0
  6  8  1  0  0  0  0
  8  9  1  0  0  0  0
  8 10  2  0  0  0  0
 10 11  1  0  0  0  0
 11 12  1  0  0  0  0
 12 13  1  0  0  0  0
 13 14  1  0  0  0  0
 14 15  1  0  0  0  0
 15 16  2  0  0  0  0
 15 17  1  0  0  0  0
 17 18  1  0  0  0  0
 18 19  2  0  0  0  0
 19 20  1  0  0  0  0
 19 21  1  0  0  0  0
 21 22  2  0  0  0  0
 22 23  1  0  0  0  0
 22 24  1  0  0  0  0
 24 25  2  0  0  0  0
 25 26  1  0  0  0  0
 26 27  2  0  0  0  0
 27 28  1  0  0  0  0
 28 29  1  0  0  0  0
 28 30  2  0  0  0  0
 18 30  1  0  0  0  0
 24 30  1  0  0  0  0
 27 31  1  0  0  0  0
 26 32  1  0  0  0  0
 25 33  1  0  0  0  0
 17 34  1  0  0  0  0
 14 35  1  0  0  0  0
 35 36  1  0  0  0  0
 35 37  1  0  0  0  0
 35 38  1  0  0  0  0
 38 39  1  0  0  0  0
 38 40  1  0  0  0  0
 38 41  1  0  0  0  0
 41 42  1  0  0  0  0
 42 43  2  0  0  0  0
 43 44  1  0  0  0  0
 44 45  2  0  0  0  0
 45 46  1  0  0  0  0
 45 47  1  0  0  0  0
 47 48  1  0  0  0  0
 47 49  2  0  0  0  0
 14 49  1  0  0  0  0
 42 49  1  0  0  0  0
 44 50  1  0  0  0  0
 43 51  1  0  0  0  0
 13 52  1  0  0  0  0
 13 53  1  0  0  0  0
 12 54  1  0  0  0  0
 11 55  1  0  0  0  0
 11 56  1  0  0  0  0
 10 57  1  0  0  0  0
 57 58  1  0  0  0  0
 57 59  2  0  0  0  0
  5 59  1  0  0  0  0
 59 60  1  0  0  0  0
  1 61  1  0  0  0  0
  1 62  1  0  0  0  0
M  END
> <Potency>
1.94485628819395

> <pIC50>
5.711112484595473

> <Outcome>
Active

> <is_active>
1

$$$$

  Mrv1921 08232120312D          

 65 68  0  0  0  0            999 V2000
   -2.4304    1.4228    0.0000 C   0  0  0  0  0  0  0  0  0  0  0  0
   -1.8903    0.7991    0.0000 C   0  0  0  0  0  0  0  0  0  0  0  0
   -2.5140    0.2590    0.0000 C   0  0  0  0  0  0  0  0  0  0  0  0
   -3.2968   -0.0013    0.0000 H   0  0  0  0  0  0  0  0  0  0  0  0
   -2.5730   -0.5639    0.0000 H   0  0  0  0  0  0  0  0  0  0  0  0
   -1.7763   -0.1105    0.0000 H   0  0  0  0  0  0  0  0  0  0  0  0
   -1.2667    1.3392    0.0000 C   0  0  0  0  0  0  0  0  0  0  0  0
   -1.0064    0.5564    0.0000 H   0  0  0  0  0  0  0  0  0  0  0  0
   -0.4438    1.2801    0.0000 H   0  0  0  0  0  0  0  0  0  0  0  0
   -0.8972    2.0768    0.0000 H   0  0  0  0  0  0  0  0  0  0  0  0
   -1.3502    0.1755    0.0000 C   0  0  0  0  0  0  0  0  0  0  0  0
   -0.5401    0.3314    0.0000 C   0  0  0  0  0  0  0  0  0  0  0  0
    0.2465    0.5801    0.0000 H   0  0  0  0  0  0  0  0  0  0  0  0
    0.0000   -0.2923    0.0000 C   0  0  0  0  0  0  0  0  0  0  0  0
    0.5401   -0.9159    0.0000 H   0  0  0  0  0  0  0  0  0  0  0  0
   -0.2700   -1.0718    0.0000 C   0  0  0  0  0  0  0  0  0  0  0  0
    0.2700   -1.6954    0.0000 N   0  0  0  0  0  0  0  0  0  0  0  0
    0.0000   -2.4750    0.0000 C   0  0  0  0  0  0  0  0  0  0  0  0
    0.5401   -3.0986    0.0000 O   0  0  0  0  0  0  0  0  0  0  0  0
   -0.8101   -2.6309    0.0000 C   0  0  0  0  0  0  0  0  0  0  0  0
   -1.1602   -3.3780    0.0000 C   0  0  0  0  0  0  0  0  0  0  0  0
   -0.7616   -4.1003    0.0000 H   0  0  0  0  0  0  0  0  0  0  0  0
   -1.9788   -3.2759    0.0000 O   0  0  0  0  0  0  0  0  0  0  0  0
   -2.1348   -2.4658    0.0000 C   0  0  0  0  0  0  0  0  0  0  0  0
   -2.8818   -2.1157    0.0000 H   0  0  0  0  0  0  0  0  0  0  0  0
   -1.4125   -2.0671    0.0000 N   0  0  0  0  0  0  0  0  0  0  0  0
    1.0802   -1.5395    0.0000 C   0  0  0  0  0  0  0  0  0  0  0  0
    1.6203   -2.1632    0.0000 C   0  0  0  0  0  0  0  0  0  0  0  0
    1.3502   -2.9427    0.0000 O   0  0  0  0  0  0  0  0  0  0  0  0
    2.4304   -2.0073    0.0000 N   0  0  0  0  0  0  0  0  0  0  0  0
    2.9705   -2.6309    0.0000 C   0  0  0  0  0  0  0  0  0  0  0  0
    3.7806   -2.4750    0.0000 C   0  0  0  0  0  0  0  0  0  0  0  0
    4.3207   -3.0986    0.0000 C   0  0  0  0  0  0  0  0  0  0  0  0
    5.1308   -2.9427    0.0000 C   0  0  0  0  0  0  0  0  0  0  0  0
    5.4009   -2.1632    0.0000 H   0  0  0  0  0  0  0  0  0  0  0  0
    5.6709   -3.5664    0.0000 C   0  0  0  0  0  0  0  0  0  0  0  0
    6.4811   -3.4105    0.0000 H   0  0  0  0  0  0  0  0  0  0  0  0
    5.4009   -4.3459    0.0000 C   0  0  0  0  0  0  0  0  0  0  0  0
    5.9410   -4.9696    0.0000 H   0  0  0  0  0  0  0  0  0  0  0  0
    4.5908   -4.5018    0.0000 C   0  0  0  0  0  0  0  0  0  0  0  0
    4.3207   -5.2814    0.0000 F   0  0  0  0  0  0  0  0  0  0  0  0
    4.0507   -3.8782    0.0000 C   0  0  0  0  0  0  0  0  0  0  0  0
    3.2405   -4.0341    0.0000 H   0  0  0  0  0  0  0  0  0  0  0  0
    4.3718   -1.8996    0.0000 H   0  0  0  0  0  0  0  0  0  0  0  0
    3.6721   -1.6572    0.0000 H   0  0  0  0  0  0  0  0  0  0  0  0
    2.3793   -3.2063    0.0000 H   0  0  0  0  0  0  0  0  0  0  0  0
    3.0790   -3.4487    0.0000 H   0  0  0  0  0  0  0  0  0  0  0  0
    2.7004   -1.2277    0.0000 H   0  0  0  0  0  0  0  0  0  0  0  0
    1.3502   -0.7600    0.0000 C   0  0  0  0  0  0  0  0  0  0  0  0
    0.8101   -0.1363    0.0000 C   0  0  0  0  0  0  0  0  0  0  0  0
    1.6203    0.0196    0.0000 H   0  0  0  0  0  0  0  0  0  0  0  0
    1.0802    0.6432    0.0000 N   0  0  0  0  0  0  0  0  0  0  0  0
    1.8903    0.7991    0.0000 C   0  0  0  0  0  0  0  0  0  0  0  0
    2.1604    1.5787    0.0000 H   0  0  0  0  0  0  0  0  0  0  0  0
    2.4304    0.1755    0.0000 C   0  0  0  0  0  0  0  0  0  0  0  0
    3.2405    0.3314    0.0000 H   0  0  0  0  0  0  0  0  0  0  0  0
    2.1604   -0.6041    0.0000 N   0  0  0  0  0  0  0  0  0  0  0  0
    0.8101   -2.3191    0.0000 H   0  0  0  0  0  0  0  0  0  0  0  0
   -1.0802   -1.2277    0.0000 C   0  0  0  0  0  0  0  0  0  0  0  0
   -1.8935   -1.3660    0.0000 H   0  0  0  0  0  0  0  0  0  0  0  0
   -1.6203   -0.6041    0.0000 C   0  0  0  0  0  0  0  0  0  0  0  0
   -0.8101   -0.4482    0.0000 H   0  0  0  0  0  0  0  0  0  0  0  0
   -1.8068    1.9628    0.0000 H   0  0  0  0  0  0  0  0  0  0  0  0
   -2.9705    2.0464    0.0000 H   0  0  0  0  0  0  0  0  0  0  0  0
   -3.0540    0.8827    0.0000 H   0  0  0  0  0  0  0  0  0  0  0  0
  1  2  1  0  0  0  0
  2  3  1  0  0  0  0
  3  4  1  0  0  0  0
  3  5  1  0  0  0  0
  3  6  1  0  0  0  0
  2  7  1  0  0  0  0
  7  8  1  0  0  0  0
  7  9  1  0  0  0  0
  7 10  1  0  0  0  0
  2 11  1  0  0  0  0
 11 12  2  0  0  0  0
 12 13  1  0  0  0  0
 12 14  1  0  0  0  0
 14 15  1  0  0  0  0
 14 16  2  0  0  0  0
 16 17  1  0  0  0  0
 17 18  1  0  0  0  0
 18 19  2  0  0  0  0
 18 20  1  0  0  0  0
 20 21  2  0  0  0  0
 21 22  1  0  0  0  0
 21 23  1  0  0  0  0
 23 24  1  0  0  0  0
 24 25  1  0  0  0  0
 24 26  2  0  0  0  0
 20 26  1  0  0  0  0
 17 27  1  0  0  0  0
 27 28  1  0  0  0  0
 28 29  2  0  0  0  0
 28 30  1  0  0  0  0
 30 31  1  0  0  0  0
 31 32  1  0  0  0  0
 32 33  1  0  0  0  0
 33 34  2  0  0  0  0
 34 35  1  0  0  0  0
 34 36  1  0  0  0  0
 36 37  1  0  0  0  0
 36 38  2  0  0  0  0
 38 39  1  0  0  0  0
 38 40  1  0  0  0  0
 40 41  1  0  0  0  0
 40 42  2  0  0  0  0
 33 42  1  0  0  0  0
 42 43  1  0  0  0  0
 32 44  1  0  0  0  0
 32 45  1  0  0  0  0
 31 46  1  0  0  0  0
 31 47  1  0  0  0  0
 30 48  1  0  0  0  0
 27 49  1  0  0  0  0
 49 50  1  0  0  0  0
 50 51  1  0  0  0  0
 50 52  2  0  0  0  0
 52 53  1  0  0  0  0
 53 54  1  0  0  0  0
 53 55  2  0  0  0  0
 55 56  1  0  0  0  0
 55 57  1  0  0  0  0
 49 57  2  0  0  0  0
 27 58  1  0  0  0  0
 16 59  1  0  0  0  0
 59 60  1  0  0  0  0
 59 61  2  0  0  0  0
 11 61  1  0  0  0  0
 61 62  1  0  0  0  0
  1 63  1  0  0  0  0
  1 64  1  0  0  0  0
  1 65  1  0  0  0  0
M  END
> <Potency>
1.21141049355378

> <pIC50>
5.916708668684303

> <Outcome>
Active

> <is_active>
1

$$$$

  Mrv1921 08232120312D          

 72 77  0  0  0  0            999 V2000
    1.0640    5.4379    0.0000 O   0  0  0  0  0  0  0  0  0  0  0  0
    1.8710    5.2664    0.0000 C   0  0  0  0  0  0  0  0  0  0  0  0
    2.4231    5.8795    0.0000 C   0  0  0  0  0  0  0  0  0  0  0  0
    2.1681    6.6641    0.0000 C   0  0  0  0  0  0  0  0  0  0  0  0
    2.9851    6.7789    0.0000 C   0  0  0  0  0  0  0  0  0  0  0  0
    3.4930    6.1288    0.0000 O   0  0  0  0  0  0  0  0  0  0  0  0
    3.2941    7.5438    0.0000 N   0  0  0  0  0  0  0  0  0  0  0  0
    4.1111    7.6587    0.0000 C   0  0  0  0  0  0  0  0  0  0  0  0
    4.4202    8.4236    0.0000 C   0  0  0  0  0  0  0  0  0  0  0  0
    4.3206    9.2426    0.0000 H   0  0  0  0  0  0  0  0  0  0  0  0
    5.2371    8.5384    0.0000 N   0  0  0  0  0  0  0  0  0  0  0  0
    5.7450    7.8883    0.0000 C   0  0  0  0  0  0  0  0  0  0  0  0
    6.5620    8.0031    0.0000 H   0  0  0  0  0  0  0  0  0  0  0  0
    5.4360    7.1234    0.0000 C   0  0  0  0  0  0  0  0  0  0  0  0
    5.9439    6.4733    0.0000 C   0  0  0  0  0  0  0  0  0  0  0  0
    5.6349    5.7083    0.0000 C   0  0  0  0  0  0  0  0  0  0  0  0
    4.8179    5.5935    0.0000 C   0  0  0  0  0  0  0  0  0  0  0  0
    4.3100    6.2436    0.0000 C   0  0  0  0  0  0  0  0  0  0  0  0
    3.8021    6.8937    0.0000 H   0  0  0  0  0  0  0  0  0  0  0  0
    4.6190    7.0085    0.0000 C   0  0  0  0  0  0  0  0  0  0  0  0
    4.5088    4.8286    0.0000 H   0  0  0  0  0  0  0  0  0  0  0  0
    6.1428    5.0582    0.0000 H   0  0  0  0  0  0  0  0  0  0  0  0
    6.7609    6.5881    0.0000 H   0  0  0  0  0  0  0  0  0  0  0  0
    3.5353    8.3328    0.0000 H   0  0  0  0  0  0  0  0  0  0  0  0
    1.4397    6.2768    0.0000 C   0  0  0  0  0  0  0  0  0  0  0  0
    2.0424    5.7135    0.0000 H   0  0  0  0  0  0  0  0  0  0  0  0
    1.4685    7.1013    0.0000 H   0  0  0  0  0  0  0  0  0  0  0  0
    0.7400    6.7140    0.0000 C   0  0  0  0  0  0  0  0  0  0  0  0
   -0.0847    6.6948    0.0000 H   0  0  0  0  0  0  0  0  0  0  0  0
    0.2629    6.0409    0.0000 H   0  0  0  0  0  0  0  0  0  0  0  0
    0.7688    7.5385    0.0000 O   0  0  0  0  0  0  0  0  0  0  0  0
    1.4973    7.9258    0.0000 C   0  0  0  0  0  0  0  0  0  0  0  0
    1.5261    8.7503    0.0000 C   0  0  0  0  0  0  0  0  0  0  0  0
    2.2545    9.1376    0.0000 C   0  0  0  0  0  0  0  0  0  0  0  0
    2.9541    8.7004    0.0000 C   0  0  0  0  0  0  0  0  0  0  0  0
    3.6826    9.0877    0.0000 Cl  0  0  0  0  0  0  0  0  0  0  0  0
    2.9253    7.8759    0.0000 C   0  0  0  0  0  0  0  0  0  0  0  0
    2.8248    7.0571    0.0000 H   0  0  0  0  0  0  0  0  0  0  0  0
    2.1969    7.4886    0.0000 C   0  0  0  0  0  0  0  0  0  0  0  0
    2.2833    9.9621    0.0000 H   0  0  0  0  0  0  0  0  0  0  0  0
    0.8264    9.1875    0.0000 H   0  0  0  0  0  0  0  0  0  0  0  0
    3.0672    5.3640    0.0000 H   0  0  0  0  0  0  0  0  0  0  0  0
    3.2212    6.0884    0.0000 H   0  0  0  0  0  0  0  0  0  0  0  0
    2.1260    4.4818    0.0000 N   0  0  0  0  0  0  0  0  0  0  0  0
    1.6410    3.8143    0.0000 C   0  0  0  0  0  0  0  0  0  0  0  0
    0.9126    4.2016    0.0000 H   0  0  0  0  0  0  0  0  0  0  0  0
    0.9126    3.4270    0.0000 H   0  0  0  0  0  0  0  0  0  0  0  0
    2.1260    3.1469    0.0000 C   0  0  0  0  0  0  0  0  0  0  0  0
    1.5325    2.5738    0.0000 H   0  0  0  0  0  0  0  0  0  0  0  0
    2.2692    2.3344    0.0000 H   0  0  0  0  0  0  0  0  0  0  0  0
    2.9106    3.4018    0.0000 C   0  0  0  0  0  0  0  0  0  0  0  0
    3.6251    3.8143    0.0000 H   0  0  0  0  0  0  0  0  0  0  0  0
    2.9106    4.2268    0.0000 C   0  0  0  0  0  0  0  0  0  0  0  0
    3.6251    4.6393    0.0000 C   0  0  0  0  0  0  0  0  0  0  0  0
    4.3395    4.2268    0.0000 C   0  0  0  0  0  0  0  0  0  0  0  0
    4.3395    3.4018    0.0000 C   0  0  0  0  0  0  0  0  0  0  0  0
    3.6251    2.9893    0.0000 N   0  0  0  0  0  0  0  0  0  0  0  0
    3.6251    2.1643    0.0000 C   0  0  0  0  0  0  0  0  0  0  0  0
    2.9106    1.7518    0.0000 C   0  0  0  0  0  0  0  0  0  0  0  0
    2.9106    0.9268    0.0000 O   0  0  0  0  0  0  0  0  0  0  0  0
    2.8620    0.1032    0.0000 H   0  0  0  0  0  0  0  0  0  0  0  0
    2.1562    1.4179    0.0000 H   0  0  0  0  0  0  0  0  0  0  0  0
    2.9986    2.5721    0.0000 H   0  0  0  0  0  0  0  0  0  0  0  0
    3.7708    1.3523    0.0000 H   0  0  0  0  0  0  0  0  0  0  0  0
    4.2596    1.6370    0.0000 H   0  0  0  0  0  0  0  0  0  0  0  0
    4.3270    2.5769    0.0000 H   0  0  0  0  0  0  0  0  0  0  0  0
    5.0411    2.9677    0.0000 H   0  0  0  0  0  0  0  0  0  0  0  0
    5.0133    3.7508    0.0000 H   0  0  0  0  0  0  0  0  0  0  0  0
    5.1171    4.5025    0.0000 H   0  0  0  0  0  0  0  0  0  0  0  0
    4.1488    5.2767    0.0000 H   0  0  0  0  0  0  0  0  0  0  0  0
    3.6382    5.4642    0.0000 H   0  0  0  0  0  0  0  0  0  0  0  0
    2.8243    5.0473    0.0000 H   0  0  0  0  0  0  0  0  0  0  0  0
  1  2  2  0  0  0  0
  2  3  1  0  0  0  0
  3  4  1  0  0  0  0
  4  5  1  0  0  0  0
  5  6  2  0  0  0  0
  5  7  1  0  0  0  0
  7  8  1  0  0  0  0
  8  9  2  0  0  0  0
  9 10  1  0  0  0  0
  9 11  1  0  0  0  0
 11 12  2  0  0  0  0
 12 13  1  0  0  0  0
 12 14  1  0  0  0  0
 14 15  2  0  0  0  0
 15 16  1  0  0  0  0
 16 17  2  0  0  0  0
 17 18  1  0  0  0  0
 18 19  1  0  0  0  0
 18 20  2  0  0  0  0
  8 20  1  0  0  0  0
 14 20  1  0  0  0  0
 17 21  1  0  0  0  0
 16 22  1  0  0  0  0
 15 23  1  0  0  0  0
  7 24  1  0  0  0  0
  4 25  1  0  0  0  0
 25 26  1  0  0  0  0
 25 27  1  0  0  0  0
 25 28  1  0  0  0  0
 28 29  1  0  0  0  0
 28 30  1  0  0  0  0
 28 31  1  0  0  0  0
 31 32  1  0  0  0  0
 32 33  2  0  0  0  0
 33 34  1  0  0  0  0
 34 35  2  0  0  0  0
 35 36  1  0  0  0  0
 35 37  1  0  0  0  0
 37 38  1  0  0  0  0
 37 39  2  0  0  0  0
  4 39  1  0  0  0  0
 32 39  1  0  0  0  0
 34 40  1  0  0  0  0
 33 41  1  0  0  0  0
  3 42  1  0  0  0  0
  3 43  1  0  0  0  0
  2 44  1  0  0  0  0
 44 45  1  0  0  0  0
 45 46  1  0  0  0  0
 45 47  1  0  0  0  0
 45 48  1  0  0  0  0
 48 49  1  0  0  0  0
 48 50  1  0  0  0  0
 48 51  1  0  0  0  0
 51 52  1  0  0  0  0
 51 53  1  0  0  0  0
 44 53  1  0  0  0  0
 53 54  1  0  0  0  0
 54 55  1  0  0  0  0
 55 56  1  0  0  0  0
 56 57  1  0  0  0  0
 51 57  1  0  0  0  0
 57 58  1  0  0  0  0
 58 59  1  0  0  0  0
 59 60  1  0  0  0  0
 60 61  1  0  0  0  0
 59 62  1  0  0  0  0
 59 63  1  0  0  0  0
 58 64  1  0  0  0  0
 58 65  1  0  0  0  0
 56 66  1  0  0  0  0
 56 67  1  0  0  0  0
 55 68  1  0  0  0  0
 55 69  1  0  0  0  0
 54 70  1  0  0  0  0
 54 71  1  0  0  0  0
 53 72  1  0  0  0  0
M  END
> <Potency>
4.65961836226082

> <pIC50>
5.331649651969114

> <Outcome>
Active

> <is_active>
1

$$$$

  Mrv1921 08232120312D          

 63 65  0  0  0  0            999 V2000
    2.9779   -4.7905    0.0000 C   0  0  0  0  0  0  0  0  0  0  0  0
    3.5724   -5.3625    0.0000 O   0  0  0  0  0  0  0  0  0  0  0  0
    4.3650   -5.1337    0.0000 C   0  0  0  0  0  0  0  0  0  0  0  0
    4.9595   -5.7057    0.0000 C   0  0  0  0  0  0  0  0  0  0  0  0
    5.7521   -5.4769    0.0000 C   0  0  0  0  0  0  0  0  0  0  0  0
    6.3466   -6.0489    0.0000 N   0  0  0  0  0  0  0  0  0  0  0  0
    7.1392   -5.8201    0.0000 C   0  0  0  0  0  0  0  0  0  0  0  0
    7.3374   -5.0193    0.0000 O   0  0  0  0  0  0  0  0  0  0  0  0
    7.7337   -6.3922    0.0000 C   0  0  0  0  0  0  0  0  0  0  0  0
    7.5355   -7.1930    0.0000 C   0  0  0  0  0  0  0  0  0  0  0  0
    8.1300   -7.7650    0.0000 C   0  0  0  0  0  0  0  0  0  0  0  0
    8.3282   -6.9642    0.0000 H   0  0  0  0  0  0  0  0  0  0  0  0
    7.9318   -8.5659    0.0000 C   0  0  0  0  0  0  0  0  0  0  0  0
    8.5263   -9.1379    0.0000 H   0  0  0  0  0  0  0  0  0  0  0  0
    7.1392   -8.7947    0.0000 C   0  0  0  0  0  0  0  0  0  0  0  0
    6.9411   -9.5956    0.0000 H   0  0  0  0  0  0  0  0  0  0  0  0
    6.5447   -8.2227    0.0000 N   0  0  0  0  0  0  0  0  0  0  0  0
    6.7429   -7.4218    0.0000 C   0  0  0  0  0  0  0  0  0  0  0  0
    5.9503   -7.6506    0.0000 H   0  0  0  0  0  0  0  0  0  0  0  0
    8.5263   -6.1633    0.0000 N   0  0  0  0  0  0  0  0  0  0  0  0
    8.7245   -5.3625    0.0000 C   0  0  0  0  0  0  0  0  0  0  0  0
    8.1300   -4.7905    0.0000 O   0  0  0  0  0  0  0  0  0  0  0  0
    9.5171   -5.1337    0.0000 C   0  0  0  0  0  0  0  0  0  0  0  0
    9.7979   -4.3579    0.0000 C   0  0  0  0  0  0  0  0  0  0  0  0
    9.3353   -3.6748    0.0000 H   0  0  0  0  0  0  0  0  0  0  0  0
   10.6224   -4.3853    0.0000 O   0  0  0  0  0  0  0  0  0  0  0  0
   10.8513   -5.1779    0.0000 C   0  0  0  0  0  0  0  0  0  0  0  0
   11.6270   -5.4587    0.0000 H   0  0  0  0  0  0  0  0  0  0  0  0
   10.1681   -5.6404    0.0000 N   0  0  0  0  0  0  0  0  0  0  0  0
    9.1208   -6.7354    0.0000 C   0  0  0  0  0  0  0  0  0  0  0  0
    9.9134   -6.5066    0.0000 C   0  0  0  0  0  0  0  0  0  0  0  0
    9.3315   -5.9218    0.0000 H   0  0  0  0  0  0  0  0  0  0  0  0
   10.5079   -7.0786    0.0000 C   0  0  0  0  0  0  0  0  0  0  0  0
   11.3005   -6.8498    0.0000 H   0  0  0  0  0  0  0  0  0  0  0  0
   10.3097   -7.8795    0.0000 C   0  0  0  0  0  0  0  0  0  0  0  0
   10.9042   -8.4515    0.0000 C   0  0  0  0  0  0  0  0  0  0  0  0
   11.4987   -9.0235    0.0000 C   0  0  0  0  0  0  0  0  0  0  0  0
   10.9267   -9.6180    0.0000 H   0  0  0  0  0  0  0  0  0  0  0  0
   12.0932   -9.5956    0.0000 H   0  0  0  0  0  0  0  0  0  0  0  0
   12.0707   -8.4290    0.0000 H   0  0  0  0  0  0  0  0  0  0  0  0
   10.3322   -9.0460    0.0000 C   0  0  0  0  0  0  0  0  0  0  0  0
   10.0019   -8.2900    0.0000 H   0  0  0  0  0  0  0  0  0  0  0  0
    9.5073   -9.0618    0.0000 H   0  0  0  0  0  0  0  0  0  0  0  0
   10.0312   -9.8141    0.0000 H   0  0  0  0  0  0  0  0  0  0  0  0
   11.4763   -7.8570    0.0000 C   0  0  0  0  0  0  0  0  0  0  0  0
   12.2322   -7.5267    0.0000 H   0  0  0  0  0  0  0  0  0  0  0  0
   11.4604   -7.0322    0.0000 H   0  0  0  0  0  0  0  0  0  0  0  0
   10.7081   -7.5560    0.0000 H   0  0  0  0  0  0  0  0  0  0  0  0
    9.5171   -8.1083    0.0000 C   0  0  0  0  0  0  0  0  0  0  0  0
    8.7563   -8.4274    0.0000 H   0  0  0  0  0  0  0  0  0  0  0  0
    8.9226   -7.5362    0.0000 C   0  0  0  0  0  0  0  0  0  0  0  0
    9.7153   -7.3074    0.0000 H   0  0  0  0  0  0  0  0  0  0  0  0
    6.9411   -6.6210    0.0000 H   0  0  0  0  0  0  0  0  0  0  0  0
    6.1484   -6.8498    0.0000 H   0  0  0  0  0  0  0  0  0  0  0  0
    6.2886   -4.8502    0.0000 H   0  0  0  0  0  0  0  0  0  0  0  0
    5.5698   -4.6723    0.0000 H   0  0  0  0  0  0  0  0  0  0  0  0
    4.4230   -6.3325    0.0000 H   0  0  0  0  0  0  0  0  0  0  0  0
    5.1418   -6.5103    0.0000 H   0  0  0  0  0  0  0  0  0  0  0  0
    4.9015   -4.5070    0.0000 H   0  0  0  0  0  0  0  0  0  0  0  0
    4.1827   -4.3291    0.0000 H   0  0  0  0  0  0  0  0  0  0  0  0
    3.5499   -4.1960    0.0000 H   0  0  0  0  0  0  0  0  0  0  0  0
    2.3834   -4.2184    0.0000 H   0  0  0  0  0  0  0  0  0  0  0  0
    2.4058   -5.3849    0.0000 H   0  0  0  0  0  0  0  0  0  0  0  0
  1  2  1  0  0  0  0
  2  3  1  0  0  0  0
  3  4  1  0  0  0  0
  4  5  1  0  0  0  0
  5  6  1  0  0  0  0
  6  7  1  0  0  0  0
  7  8  2  0  0  0  0
  7  9  1  0  0  0  0
  9 10  1  0  0  0  0
 10 11  2  0  0  0  0
 11 12  1  0  0  0  0
 11 13  1  0  0  0  0
 13 14  1  0  0  0  0
 13 15  2  0  0  0  0
 15 16  1  0  0  0  0
 15 17  1  0  0  0  0
 17 18  2  0  0  0  0
 10 18  1  0  0  0  0
 18 19  1  0  0  0  0
  9 20  1  0  0  0  0
 20 21  1  0  0  0  0
 21 22  2  0  0  0  0
 21 23  1  0  0  0  0
 23 24  2  0  0  0  0
 24 25  1  0  0  0  0
 24 26  1  0  0  0  0
 26 27  1  0  0  0  0
 27 28  1  0  0  0  0
 27 29  2  0  0  0  0
 23 29  1  0  0  0  0
 20 30  1  0  0  0  0
 30 31  2  0  0  0  0
 31 32  1  0  0  0  0
 31 33  1  0  0  0  0
 33 34  1  0  0  0  0
 33 35  2  0  0  0  0
 35 36  1  0  0  0  0
 36 37  1  0  0  0  0
 37 38  1  0  0  0  0
 37 39  1  0  0  0  0
 37 40  1  0  0  0  0
 36 41  1  0  0  0  0
 41 42  1  0  0  0  0
 41 43  1  0  0  0  0
 41 44  1  0  0  0  0
 36 45  1  0  0  0  0
 45 46  1  0  0  0  0
 45 47  1  0  0  0  0
 45 48  1  0  0  0  0
 35 49  1  0  0  0  0
 49 50  1  0  0  0  0
 49 51  2  0  0  0  0
 30 51  1  0  0  0  0
 51 52  1  0  0  0  0
  9 53  1  0  0  0  0
  6 54  1  0  0  0  0
  5 55  1  0  0  0  0
  5 56  1  0  0  0  0
  4 57  1  0  0  0  0
  4 58  1  0  0  0  0
  3 59  1  0  0  0  0
  3 60  1  0  0  0  0
  1 61  1  0  0  0  0
  1 62  1  0  0  0  0
  1 63  1  0  0  0  0
M  END
> <Potency>
8.7864354707462

> <pIC50>
5.056187276161136

> <Outcome>
Active

> <is_active>
1

$$$$

  Mrv1921 08232120312D          

 68 71  0  0  0  0            999 V2000
   -0.1732   -5.6359    0.0000 C   0  0  0  0  0  0  0  0  0  0  0  0
    0.3788   -5.0228    0.0000 C   0  0  0  0  0  0  0  0  0  0  0  0
    0.1239   -4.2382    0.0000 O   0  0  0  0  0  0  0  0  0  0  0  0
    0.6759   -3.6251    0.0000 C   0  0  0  0  0  0  0  0  0  0  0  0
    1.4829   -3.7966    0.0000 O   0  0  0  0  0  0  0  0  0  0  0  0
    0.4210   -2.8405    0.0000 C   0  0  0  0  0  0  0  0  0  0  0  0
   -0.3636   -2.5855    0.0000 N   0  0  0  0  0  0  0  0  0  0  0  0
   -0.3636   -1.7605    0.0000 C   0  0  0  0  0  0  0  0  0  0  0  0
   -1.0311   -1.2756    0.0000 H   0  0  0  0  0  0  0  0  0  0  0  0
    0.4210   -1.5056    0.0000 O   0  0  0  0  0  0  0  0  0  0  0  0
    0.9059   -2.1730    0.0000 C   0  0  0  0  0  0  0  0  0  0  0  0
    1.7309   -2.1730    0.0000 C   0  0  0  0  0  0  0  0  0  0  0  0
    2.1434   -2.8875    0.0000 N   0  0  0  0  0  0  0  0  0  0  0  0
    2.9684   -2.8875    0.0000 C   0  0  0  0  0  0  0  0  0  0  0  0
    3.3809   -2.1730    0.0000 O   0  0  0  0  0  0  0  0  0  0  0  0
    3.3809   -3.6020    0.0000 C   0  0  0  0  0  0  0  0  0  0  0  0
    2.9684   -4.3164    0.0000 C   0  0  0  0  0  0  0  0  0  0  0  0
    3.3809   -5.0309    0.0000 C   0  0  0  0  0  0  0  0  0  0  0  0
    3.7934   -4.3164    0.0000 H   0  0  0  0  0  0  0  0  0  0  0  0
    2.9684   -5.7454    0.0000 C   0  0  0  0  0  0  0  0  0  0  0  0
    3.3809   -6.4599    0.0000 H   0  0  0  0  0  0  0  0  0  0  0  0
    2.1434   -5.7454    0.0000 C   0  0  0  0  0  0  0  0  0  0  0  0
    1.7309   -6.4599    0.0000 H   0  0  0  0  0  0  0  0  0  0  0  0
    1.7309   -5.0309    0.0000 N   0  0  0  0  0  0  0  0  0  0  0  0
    2.1434   -4.3164    0.0000 C   0  0  0  0  0  0  0  0  0  0  0  0
    2.5559   -5.0309    0.0000 H   0  0  0  0  0  0  0  0  0  0  0  0
    4.2059   -3.6020    0.0000 N   0  0  0  0  0  0  0  0  0  0  0  0
    4.6184   -2.8875    0.0000 C   0  0  0  0  0  0  0  0  0  0  0  0
    4.2059   -2.1730    0.0000 O   0  0  0  0  0  0  0  0  0  0  0  0
    5.4434   -2.8875    0.0000 C   0  0  0  0  0  0  0  0  0  0  0  0
    5.9283   -2.2201    0.0000 C   0  0  0  0  0  0  0  0  0  0  0  0
    5.6734   -1.4354    0.0000 H   0  0  0  0  0  0  0  0  0  0  0  0
    6.7130   -2.4750    0.0000 O   0  0  0  0  0  0  0  0  0  0  0  0
    6.7130   -3.3000    0.0000 C   0  0  0  0  0  0  0  0  0  0  0  0
    7.3804   -3.7849    0.0000 H   0  0  0  0  0  0  0  0  0  0  0  0
    5.9283   -3.5549    0.0000 N   0  0  0  0  0  0  0  0  0  0  0  0
    4.6184   -4.3164    0.0000 C   0  0  0  0  0  0  0  0  0  0  0  0
    5.4434   -4.3164    0.0000 C   0  0  0  0  0  0  0  0  0  0  0  0
    5.0465   -3.5932    0.0000 H   0  0  0  0  0  0  0  0  0  0  0  0
    5.8559   -5.0309    0.0000 C   0  0  0  0  0  0  0  0  0  0  0  0
    6.6809   -5.0309    0.0000 H   0  0  0  0  0  0  0  0  0  0  0  0
    5.4434   -5.7454    0.0000 C   0  0  0  0  0  0  0  0  0  0  0  0
    5.8559   -6.4599    0.0000 C   0  0  0  0  0  0  0  0  0  0  0  0
    6.2684   -7.1743    0.0000 C   0  0  0  0  0  0  0  0  0  0  0  0
    5.5539   -7.5868    0.0000 H   0  0  0  0  0  0  0  0  0  0  0  0
    6.6809   -7.8888    0.0000 H   0  0  0  0  0  0  0  0  0  0  0  0
    6.9829   -6.7618    0.0000 H   0  0  0  0  0  0  0  0  0  0  0  0
    5.1414   -6.8724    0.0000 C   0  0  0  0  0  0  0  0  0  0  0  0
    5.0338   -6.0544    0.0000 H   0  0  0  0  0  0  0  0  0  0  0  0
    4.3446   -6.6588    0.0000 H   0  0  0  0  0  0  0  0  0  0  0  0
    4.6392   -7.5269    0.0000 H   0  0  0  0  0  0  0  0  0  0  0  0
    6.5704   -6.0474    0.0000 C   0  0  0  0  0  0  0  0  0  0  0  0
    7.3883   -5.9397    0.0000 H   0  0  0  0  0  0  0  0  0  0  0  0
    6.7839   -5.2505    0.0000 H   0  0  0  0  0  0  0  0  0  0  0  0
    5.9159   -5.5451    0.0000 H   0  0  0  0  0  0  0  0  0  0  0  0
    4.6184   -5.7454    0.0000 C   0  0  0  0  0  0  0  0  0  0  0  0
    3.7990   -5.8410    0.0000 H   0  0  0  0  0  0  0  0  0  0  0  0
    4.2059   -5.0309    0.0000 C   0  0  0  0  0  0  0  0  0  0  0  0
    5.0309   -5.0309    0.0000 H   0  0  0  0  0  0  0  0  0  0  0  0
    2.5559   -3.6020    0.0000 H   0  0  0  0  0  0  0  0  0  0  0  0
    1.7309   -3.6020    0.0000 H   0  0  0  0  0  0  0  0  0  0  0  0
    2.4202   -1.7197    0.0000 H   0  0  0  0  0  0  0  0  0  0  0  0
    1.7789   -1.3494    0.0000 H   0  0  0  0  0  0  0  0  0  0  0  0
    1.0230   -5.5383    0.0000 H   0  0  0  0  0  0  0  0  0  0  0  0
    1.1770   -4.8139    0.0000 H   0  0  0  0  0  0  0  0  0  0  0  0
   -0.7863   -5.0839    0.0000 H   0  0  0  0  0  0  0  0  0  0  0  0
   -0.7252   -6.2490    0.0000 H   0  0  0  0  0  0  0  0  0  0  0  0
    0.4399   -6.1879    0.0000 H   0  0  0  0  0  0  0  0  0  0  0  0
  1  2  1  0  0  0  0
  2  3  1  0  0  0  0
  3  4  1  0  0  0  0
  4  5  2  0  0  0  0
  4  6  1  0  0  0  0
  6  7  1  0  0  0  0
  7  8  2  0  0  0  0
  8  9  1  0  0  0  0
  8 10  1  0  0  0  0
 10 11  1  0  0  0  0
  6 11  2  0  0  0  0
 11 12  1  0  0  0  0
 12 13  1  0  0  0  0
 13 14  1  0  0  0  0
 14 15  2  0  0  0  0
 14 16  1  0  0  0  0
 16 17  1  0  0  0  0
 17 18  2  0  0  0  0
 18 19  1  0  0  0  0
 18 20  1  0  0  0  0
 20 21  1  0  0  0  0
 20 22  2  0  0  0  0
 22 23  1  0  0  0  0
 22 24  1  0  0  0  0
 24 25  2  0  0  0  0
 17 25  1  0  0  0  0
 25 26  1  0  0  0  0
 16 27  1  0  0  0  0
 27 28  1  0  0  0  0
 28 29  2  0  0  0  0
 28 30  1  0  0  0  0
 30 31  2  0  0  0  0
 31 32  1  0  0  0  0
 31 33  1  0  0  0  0
 33 34  1  0  0  0  0
 34 35  1  0  0  0  0
 34 36  2  0  0  0  0
 30 36  1  0  0  0  0
 27 37  1  0  0  0  0
 37 38  2  0  0  0  0
 38 39  1  0  0  0  0
 38 40  1  0  0  0  0
 40 41  1  0  0  0  0
 40 42  2  0  0  0  0
 42 43  1  0  0  0  0
 43 44  1  0  0  0  0
 44 45  1  0  0  0  0
 44 46  1  0  0  0  0
 44 47  1  0  0  0  0
 43 48  1  0  0  0  0
 48 49  1  0  0  0  0
 48 50  1  0  0  0  0
 48 51  1  0  0  0  0
 43 52  1  0  0  0  0
 52 53  1  0  0  0  0
 52 54  1  0  0  0  0
 52 55  1  0  0  0  0
 42 56  1  0  0  0  0
 56 57  1  0  0  0  0
 56 58  2  0  0  0  0
 37 58  1  0  0  0  0
 58 59  1  0  0  0  0
 16 60  1  0  0  0  0
 13 61  1  0  0  0  0
 12 62  1  0  0  0  0
 12 63  1  0  0  0  0
  2 64  1  0  0  0  0
  2 65  1  0  0  0  0
  1 66  1  0  0  0  0
  1 67  1  0  0  0  0
  1 68  1  0  0  0  0
M  END
> <Potency>
5.87854334094103

> <pIC50>
5.2307302755163745

> <Outcome>
Active

> <is_active>
1

$$$$

  Mrv1921 08232120312D          

 43 46  0  0  0  0            999 V2000
    1.1808   -3.0572    0.0000 O   0  0  0  0  0  0  0  0  0  0  0  0
    0.8986   -2.2820    0.0000 C   0  0  0  0  0  0  0  0  0  0  0  0
    0.0862   -2.1387    0.0000 N   0  0  0  0  0  0  0  0  0  0  0  0
   -0.4441   -2.7707    0.0000 C   0  0  0  0  0  0  0  0  0  0  0  0
   -0.1620   -3.5460    0.0000 C   0  0  0  0  0  0  0  0  0  0  0  0
    0.6505   -3.6892    0.0000 H   0  0  0  0  0  0  0  0  0  0  0  0
   -0.6923   -4.1779    0.0000 N   0  0  0  0  0  0  0  0  0  0  0  0
   -1.5047   -4.0347    0.0000 C   0  0  0  0  0  0  0  0  0  0  0  0
   -2.0350   -4.6667    0.0000 H   0  0  0  0  0  0  0  0  0  0  0  0
   -1.7869   -3.2594    0.0000 C   0  0  0  0  0  0  0  0  0  0  0  0
   -2.5994   -3.1162    0.0000 C   0  0  0  0  0  0  0  0  0  0  0  0
   -2.8815   -2.3409    0.0000 C   0  0  0  0  0  0  0  0  0  0  0  0
   -2.3512   -1.7089    0.0000 C   0  0  0  0  0  0  0  0  0  0  0  0
   -1.5388   -1.8522    0.0000 C   0  0  0  0  0  0  0  0  0  0  0  0
   -1.0085   -1.2202    0.0000 H   0  0  0  0  0  0  0  0  0  0  0  0
   -1.2566   -2.6275    0.0000 C   0  0  0  0  0  0  0  0  0  0  0  0
   -2.6334   -0.9337    0.0000 H   0  0  0  0  0  0  0  0  0  0  0  0
   -3.6940   -2.1977    0.0000 H   0  0  0  0  0  0  0  0  0  0  0  0
   -3.1297   -3.7482    0.0000 H   0  0  0  0  0  0  0  0  0  0  0  0
   -0.1960   -1.3635    0.0000 H   0  0  0  0  0  0  0  0  0  0  0  0
    1.4289   -1.6500    0.0000 C   0  0  0  0  0  0  0  0  0  0  0  0
    1.9592   -2.2820    0.0000 C   0  0  0  0  0  0  0  0  0  0  0  0
    1.6771   -3.0572    0.0000 O   0  0  0  0  0  0  0  0  0  0  0  0
    2.1503   -3.7330    0.0000 H   0  0  0  0  0  0  0  0  0  0  0  0
    2.7496   -2.5186    0.0000 H   0  0  0  0  0  0  0  0  0  0  0  0
    2.6210   -1.7893    0.0000 H   0  0  0  0  0  0  0  0  0  0  0  0
    0.7145   -1.2375    0.0000 C   0  0  0  0  0  0  0  0  0  0  0  0
    0.5562   -2.0472    0.0000 H   0  0  0  0  0  0  0  0  0  0  0  0
    1.4289   -0.8250    0.0000 H   0  0  0  0  0  0  0  0  0  0  0  0
    0.7145   -0.4125    0.0000 C   0  0  0  0  0  0  0  0  0  0  0  0
    0.2611    0.2768    0.0000 H   0  0  0  0  0  0  0  0  0  0  0  0
   -0.1091   -0.3645    0.0000 H   0  0  0  0  0  0  0  0  0  0  0  0
    1.4289    0.0000    0.0000 O   0  0  0  0  0  0  0  0  0  0  0  0
    2.1434   -0.4125    0.0000 C   0  0  0  0  0  0  0  0  0  0  0  0
    2.8579    0.0000    0.0000 C   0  0  0  0  0  0  0  0  0  0  0  0
    3.5724   -0.4125    0.0000 C   0  0  0  0  0  0  0  0  0  0  0  0
    3.5724   -1.2375    0.0000 C   0  0  0  0  0  0  0  0  0  0  0  0
    4.2868   -1.6500    0.0000 Cl  0  0  0  0  0  0  0  0  0  0  0  0
    2.8579   -1.6500    0.0000 C   0  0  0  0  0  0  0  0  0  0  0  0
    3.5454   -2.1060    0.0000 H   0  0  0  0  0  0  0  0  0  0  0  0
    2.1434   -1.2375    0.0000 C   0  0  0  0  0  0  0  0  0  0  0  0
    4.2868   -0.0000    0.0000 H   0  0  0  0  0  0  0  0  0  0  0  0
    2.8579    0.8250    0.0000 H   0  0  0  0  0  0  0  0  0  0  0  0
  1  2  2  0  0  0  0
  2  3  1  0  0  0  0
  3  4  1  0  0  0  0
  4  5  2  0  0  0  0
  5  6  1  0  0  0  0
  5  7  1  0  0  0  0
  7  8  2  0  0  0  0
  8  9  1  0  0  0  0
  8 10  1  0  0  0  0
 10 11  2  0  0  0  0
 11 12  1  0  0  0  0
 12 13  2  0  0  0  0
 13 14  1  0  0  0  0
 14 15  1  0  0  0  0
 14 16  2  0  0  0  0
  4 16  1  0  0  0  0
 10 16  1  0  0  0  0
 13 17  1  0  0  0  0
 12 18  1  0  0  0  0
 11 19  1  0  0  0  0
  3 20  1  0  0  0  0
  2 21  1  0  0  0  0
 21 22  1  0  0  0  0
 22 23  1  0  0  0  0
 23 24  1  0  0  0  0
 22 25  1  0  0  0  0
 22 26  1  0  0  0  0
 21 27  1  0  0  0  0
 27 28  1  0  0  0  0
 27 29  1  0  0  0  0
 27 30  1  0  0  0  0
 30 31  1  0  0  0  0
 30 32  1  0  0  0  0
 30 33  1  0  0  0  0
 33 34  1  0  0  0  0
 34 35  2  0  0  0  0
 35 36  1  0  0  0  0
 36 37  2  0  0  0  0
 37 38  1  0  0  0  0
 37 39  1  0  0  0  0
 39 40  1  0  0  0  0
 39 41  2  0  0  0  0
 21 41  1  0  0  0  0
 34 41  1  0  0  0  0
 36 42  1  0  0  0  0
 35 43  1  0  0  0  0
M  END
> <Potency>
1.08803584514067

> <pIC50>
5.963356796650374

> <Outcome>
Active

> <is_active>
1

$$$$

  Mrv1921 08232120312D          

 44 46  0  0  0  0            999 V2000
    0.0000   -6.6000    0.0000 C   0  0  0  0  0  0  0  0  0  0  0  0
   -0.7145   -6.1875    0.0000 C   0  0  0  0  0  0  0  0  0  0  0  0
   -1.4289   -6.6000    0.0000 C   0  0  0  0  0  0  0  0  0  0  0  0
   -1.4289   -7.4250    0.0000 N   0  0  0  0  0  0  0  0  0  0  0  0
   -2.1662   -7.7953    0.0000 H   0  0  0  0  0  0  0  0  0  0  0  0
   -1.3810   -8.2486    0.0000 H   0  0  0  0  0  0  0  0  0  0  0  0
   -2.1434   -6.1875    0.0000 O   0  0  0  0  0  0  0  0  0  0  0  0
   -0.7145   -5.3625    0.0000 C   0  0  0  0  0  0  0  0  0  0  0  0
   -1.4289   -4.9500    0.0000 C   0  0  0  0  0  0  0  0  0  0  0  0
   -2.1434   -5.3625    0.0000 H   0  0  0  0  0  0  0  0  0  0  0  0
   -1.4289   -4.1250    0.0000 C   0  0  0  0  0  0  0  0  0  0  0  0
   -2.1434   -3.7125    0.0000 Cl  0  0  0  0  0  0  0  0  0  0  0  0
   -0.7145   -3.7125    0.0000 C   0  0  0  0  0  0  0  0  0  0  0  0
   -0.7145   -2.8875    0.0000 H   0  0  0  0  0  0  0  0  0  0  0  0
    0.0000   -4.1250    0.0000 C   0  0  0  0  0  0  0  0  0  0  0  0
    0.7145   -3.7125    0.0000 C   0  0  0  0  0  0  0  0  0  0  0  0
    0.7145   -2.8875    0.0000 C   0  0  0  0  0  0  0  0  0  0  0  0
    0.0000   -2.4750    0.0000 O   0  0  0  0  0  0  0  0  0  0  0  0
    1.4289   -2.4750    0.0000 N   0  0  0  0  0  0  0  0  0  0  0  0
    1.4289   -1.6500    0.0000 C   0  0  0  0  0  0  0  0  0  0  0  0
    0.7145   -1.2375    0.0000 C   0  0  0  0  0  0  0  0  0  0  0  0
    0.0000   -1.6500    0.0000 H   0  0  0  0  0  0  0  0  0  0  0  0
    0.7145   -0.4125    0.0000 N   0  0  0  0  0  0  0  0  0  0  0  0
    1.4289    0.0000    0.0000 C   0  0  0  0  0  0  0  0  0  0  0  0
    1.4289    0.8250    0.0000 H   0  0  0  0  0  0  0  0  0  0  0  0
    2.1434   -0.4125    0.0000 C   0  0  0  0  0  0  0  0  0  0  0  0
    2.8579    0.0000    0.0000 C   0  0  0  0  0  0  0  0  0  0  0  0
    3.5724   -0.4125    0.0000 C   0  0  0  0  0  0  0  0  0  0  0  0
    3.5724   -1.2375    0.0000 C   0  0  0  0  0  0  0  0  0  0  0  0
    2.8579   -1.6500    0.0000 C   0  0  0  0  0  0  0  0  0  0  0  0
    2.8579   -2.4750    0.0000 H   0  0  0  0  0  0  0  0  0  0  0  0
    2.1434   -1.2375    0.0000 C   0  0  0  0  0  0  0  0  0  0  0  0
    4.2868   -1.6500    0.0000 H   0  0  0  0  0  0  0  0  0  0  0  0
    4.2868   -0.0000    0.0000 H   0  0  0  0  0  0  0  0  0  0  0  0
    2.8579    0.8250    0.0000 H   0  0  0  0  0  0  0  0  0  0  0  0
    2.1434   -2.8875    0.0000 H   0  0  0  0  0  0  0  0  0  0  0  0
    1.1678   -4.4018    0.0000 H   0  0  0  0  0  0  0  0  0  0  0  0
    1.5381   -3.7605    0.0000 H   0  0  0  0  0  0  0  0  0  0  0  0
    0.0000   -4.9500    0.0000 C   0  0  0  0  0  0  0  0  0  0  0  0
    0.7145   -5.3625    0.0000 H   0  0  0  0  0  0  0  0  0  0  0  0
   -0.7145   -7.0125    0.0000 H   0  0  0  0  0  0  0  0  0  0  0  0
   -0.4125   -7.3145    0.0000 H   0  0  0  0  0  0  0  0  0  0  0  0
    0.7145   -7.0125    0.0000 H   0  0  0  0  0  0  0  0  0  0  0  0
    0.4125   -5.8855    0.0000 H   0  0  0  0  0  0  0  0  0  0  0  0
  1  2  1  0  0  0  0
  2  3  1  0  0  0  0
  3  4  1  0  0  0  0
  4  5  1  0  0  0  0
  4  6  1  0  0  0  0
  3  7  2  0  0  0  0
  2  8  1  0  0  0  0
  8  9  2  0  0  0  0
  9 10  1  0  0  0  0
  9 11  1  0  0  0  0
 11 12  1  0  0  0  0
 11 13  2  0  0  0  0
 13 14  1  0  0  0  0
 13 15  1  0  0  0  0
 15 16  1  0  0  0  0
 16 17  1  0  0  0  0
 17 18  2  0  0  0  0
 17 19  1  0  0  0  0
 19 20  1  0  0  0  0
 20 21  2  0  0  0  0
 21 22  1  0  0  0  0
 21 23  1  0  0  0  0
 23 24  2  0  0  0  0
 24 25  1  0  0  0  0
 24 26  1  0  0  0  0
 26 27  2  0  0  0  0
 27 28  1  0  0  0  0
 28 29  2  0  0  0  0
 29 30  1  0  0  0  0
 30 31  1  0  0  0  0
 30 32  2  0  0  0  0
 20 32  1  0  0  0  0
 26 32  1  0  0  0  0
 29 33  1  0  0  0  0
 28 34  1  0  0  0  0
 27 35  1  0  0  0  0
 19 36  1  0  0  0  0
 16 37  1  0  0  0  0
 16 38  1  0  0  0  0
 15 39  2  0  0  0  0
  8 39  1  0  0  0  0
 39 40  1  0  0  0  0
  2 41  1  0  0  0  0
  1 42  1  0  0  0  0
  1 43  1  0  0  0  0
  1 44  1  0  0  0  0
M  END
> <Potency>
2.62182402613532

> <pIC50>
5.5813964610224005

> <Outcome>
Active

> <is_active>
1

$$$$

  Mrv1921 08232120312D          

 47 50  0  0  0  0            999 V2000
    2.1434   -2.8875    0.0000 O   0  0  0  0  0  0  0  0  0  0  0  0
    1.4289   -2.4750    0.0000 C   0  0  0  0  0  0  0  0  0  0  0  0
    1.4289   -1.6500    0.0000 C   0  0  0  0  0  0  0  0  0  0  0  0
    0.7145   -1.2375    0.0000 C   0  0  0  0  0  0  0  0  0  0  0  0
    0.0000   -1.6500    0.0000 H   0  0  0  0  0  0  0  0  0  0  0  0
    0.7145   -0.4125    0.0000 C   0  0  0  0  0  0  0  0  0  0  0  0
    0.0000    0.0000    0.0000 O   0  0  0  0  0  0  0  0  0  0  0  0
    1.4289    0.0000    0.0000 N   0  0  0  0  0  0  0  0  0  0  0  0
    1.4289    0.8250    0.0000 H   0  0  0  0  0  0  0  0  0  0  0  0
    2.1434   -0.4125    0.0000 C   0  0  0  0  0  0  0  0  0  0  0  0
    2.8579    0.0000    0.0000 C   0  0  0  0  0  0  0  0  0  0  0  0
    3.5724   -0.4125    0.0000 C   0  0  0  0  0  0  0  0  0  0  0  0
    3.5724   -1.2375    0.0000 C   0  0  0  0  0  0  0  0  0  0  0  0
    2.8579   -1.6500    0.0000 C   0  0  0  0  0  0  0  0  0  0  0  0
    2.8579   -2.4750    0.0000 H   0  0  0  0  0  0  0  0  0  0  0  0
    2.1434   -1.2375    0.0000 C   0  0  0  0  0  0  0  0  0  0  0  0
    4.2868   -1.6500    0.0000 H   0  0  0  0  0  0  0  0  0  0  0  0
    4.2868   -0.0000    0.0000 H   0  0  0  0  0  0  0  0  0  0  0  0
    2.8579    0.8250    0.0000 H   0  0  0  0  0  0  0  0  0  0  0  0
    0.7145   -2.8875    0.0000 N   0  0  0  0  0  0  0  0  0  0  0  0
    0.7145   -3.7125    0.0000 C   0  0  0  0  0  0  0  0  0  0  0  0
    1.1678   -4.4018    0.0000 H   0  0  0  0  0  0  0  0  0  0  0  0
    1.5381   -3.7605    0.0000 H   0  0  0  0  0  0  0  0  0  0  0  0
    0.0000   -4.1250    0.0000 C   0  0  0  0  0  0  0  0  0  0  0  0
   -0.3703   -4.8622    0.0000 H   0  0  0  0  0  0  0  0  0  0  0  0
    0.3703   -4.8622    0.0000 H   0  0  0  0  0  0  0  0  0  0  0  0
   -0.7145   -3.7125    0.0000 N   0  0  0  0  0  0  0  0  0  0  0  0
   -1.4289   -4.1250    0.0000 C   0  0  0  0  0  0  0  0  0  0  0  0
   -2.1434   -3.7125    0.0000 C   0  0  0  0  0  0  0  0  0  0  0  0
   -2.8579   -4.1250    0.0000 C   0  0  0  0  0  0  0  0  0  0  0  0
   -2.8579   -4.9500    0.0000 H   0  0  0  0  0  0  0  0  0  0  0  0
   -3.5724   -3.7125    0.0000 C   0  0  0  0  0  0  0  0  0  0  0  0
   -4.2868   -4.1250    0.0000 H   0  0  0  0  0  0  0  0  0  0  0  0
   -3.5724   -2.8875    0.0000 C   0  0  0  0  0  0  0  0  0  0  0  0
   -4.2868   -2.4750    0.0000 H   0  0  0  0  0  0  0  0  0  0  0  0
   -2.8579   -2.4750    0.0000 C   0  0  0  0  0  0  0  0  0  0  0  0
   -2.8579   -1.6500    0.0000 Cl  0  0  0  0  0  0  0  0  0  0  0  0
   -2.1434   -2.8875    0.0000 C   0  0  0  0  0  0  0  0  0  0  0  0
   -1.4289   -2.4750    0.0000 H   0  0  0  0  0  0  0  0  0  0  0  0
   -1.7992   -4.8622    0.0000 H   0  0  0  0  0  0  0  0  0  0  0  0
   -1.0587   -4.8622    0.0000 H   0  0  0  0  0  0  0  0  0  0  0  0
   -0.7145   -2.8875    0.0000 C   0  0  0  0  0  0  0  0  0  0  0  0
   -0.7145   -2.0625    0.0000 H   0  0  0  0  0  0  0  0  0  0  0  0
    0.0000   -3.3000    0.0000 H   0  0  0  0  0  0  0  0  0  0  0  0
    0.0000   -2.4750    0.0000 C   0  0  0  0  0  0  0  0  0  0  0  0
    0.8125   -2.3317    0.0000 H   0  0  0  0  0  0  0  0  0  0  0  0
    0.5303   -1.8430    0.0000 H   0  0  0  0  0  0  0  0  0  0  0  0
  1  2  2  0  0  0  0
  2  3  1  0  0  0  0
  3  4  4  0  0  0  0
  4  5  1  0  0  0  0
  4  6  4  0  0  0  0
  6  7  2  0  0  0  0
  6  8  4  0  0  0  0
  8  9  1  0  0  0  0
  8 10  4  0  0  0  0
 10 11  4  0  0  0  0
 11 12  4  0  0  0  0
 12 13  4  0  0  0  0
 13 14  4  0  0  0  0
 14 15  1  0  0  0  0
 14 16  4  0  0  0  0
  3 16  4  0  0  0  0
 10 16  4  0  0  0  0
 13 17  1  0  0  0  0
 12 18  1  0  0  0  0
 11 19  1  0  0  0  0
  2 20  1  0  0  0  0
 20 21  1  0  0  0  0
 21 22  1  0  0  0  0
 21 23  1  0  0  0  0
 21 24  1  0  0  0  0
 24 25  1  0  0  0  0
 24 26  1  0  0  0  0
 24 27  1  0  0  0  0
 27 28  1  0  0  0  0
 28 29  1  0  0  0  0
 29 30  2  0  0  0  0
 30 31  1  0  0  0  0
 30 32  1  0  0  0  0
 32 33  1  0  0  0  0
 32 34  2  0  0  0  0
 34 35  1  0  0  0  0
 34 36  1  0  0  0  0
 36 37  1  0  0  0  0
 36 38  2  0  0  0  0
 29 38  1  0  0  0  0
 38 39  1  0  0  0  0
 28 40  1  0  0  0  0
 28 41  1  0  0  0  0
 27 42  1  0  0  0  0
 42 43  1  0  0  0  0
 42 44  1  0  0  0  0
 42 45  1  0  0  0  0
 20 45  1  0  0  0  0
 45 46  1  0  0  0  0
 45 47  1  0  0  0  0
M  END
> <Potency>
4.57134210135622

> <pIC50>
5.33995627659476

> <Outcome>
Active

> <is_active>
1

$$$$

  Mrv1921 08232120312D          

 56 59  0  0  0  0            999 V2000
    3.5724   -1.2375    0.0000 O   0  0  0  0  0  0  0  0  0  0  0  0
    3.5724   -0.4125    0.0000 C   0  0  0  0  0  0  0  0  0  0  0  0
    2.8579    0.0000    0.0000 C   0  0  0  0  0  0  0  0  0  0  0  0
    2.1434   -0.4125    0.0000 C   0  0  0  0  0  0  0  0  0  0  0  0
    2.1434   -1.2375    0.0000 C   0  0  0  0  0  0  0  0  0  0  0  0
    2.8579   -1.6500    0.0000 H   0  0  0  0  0  0  0  0  0  0  0  0
    1.4289   -1.6500    0.0000 N   0  0  0  0  0  0  0  0  0  0  0  0
    0.7145   -1.2375    0.0000 C   0  0  0  0  0  0  0  0  0  0  0  0
    0.0000   -1.6500    0.0000 H   0  0  0  0  0  0  0  0  0  0  0  0
    0.7145   -0.4125    0.0000 C   0  0  0  0  0  0  0  0  0  0  0  0
   -0.0000    0.0000    0.0000 C   0  0  0  0  0  0  0  0  0  0  0  0
    0.0000    0.8250    0.0000 C   0  0  0  0  0  0  0  0  0  0  0  0
    0.7145    1.2375    0.0000 C   0  0  0  0  0  0  0  0  0  0  0  0
    1.4289    0.8250    0.0000 C   0  0  0  0  0  0  0  0  0  0  0  0
    2.1434    1.2375    0.0000 H   0  0  0  0  0  0  0  0  0  0  0  0
    1.4289    0.0000    0.0000 C   0  0  0  0  0  0  0  0  0  0  0  0
    0.7145    2.0625    0.0000 H   0  0  0  0  0  0  0  0  0  0  0  0
   -0.7145    1.2375    0.0000 H   0  0  0  0  0  0  0  0  0  0  0  0
   -0.7145   -0.4125    0.0000 H   0  0  0  0  0  0  0  0  0  0  0  0
    3.2281    0.7372    0.0000 H   0  0  0  0  0  0  0  0  0  0  0  0
    2.4876    0.7372    0.0000 H   0  0  0  0  0  0  0  0  0  0  0  0
    4.2868    0.0000    0.0000 N   0  0  0  0  0  0  0  0  0  0  0  0
    5.0013   -0.4125    0.0000 C   0  0  0  0  0  0  0  0  0  0  0  0
    5.7158    0.0000    0.0000 C   0  0  0  0  0  0  0  0  0  0  0  0
    6.4302   -0.4125    0.0000 C   0  0  0  0  0  0  0  0  0  0  0  0
    7.1447    0.0000    0.0000 C   0  0  0  0  0  0  0  0  0  0  0  0
    7.5150    0.7372    0.0000 H   0  0  0  0  0  0  0  0  0  0  0  0
    6.7745    0.7372    0.0000 H   0  0  0  0  0  0  0  0  0  0  0  0
    7.8592   -0.4125    0.0000 C   0  0  0  0  0  0  0  0  0  0  0  0
    8.6828   -0.3645    0.0000 H   0  0  0  0  0  0  0  0  0  0  0  0
    8.3125    0.2768    0.0000 H   0  0  0  0  0  0  0  0  0  0  0  0
    7.8592   -1.2375    0.0000 C   0  0  0  0  0  0  0  0  0  0  0  0
    8.3125   -1.9268    0.0000 H   0  0  0  0  0  0  0  0  0  0  0  0
    8.6828   -1.2855    0.0000 H   0  0  0  0  0  0  0  0  0  0  0  0
    7.1447   -1.6500    0.0000 C   0  0  0  0  0  0  0  0  0  0  0  0
    6.7745   -2.3872    0.0000 H   0  0  0  0  0  0  0  0  0  0  0  0
    7.5150   -2.3872    0.0000 H   0  0  0  0  0  0  0  0  0  0  0  0
    6.4302   -1.2375    0.0000 C   0  0  0  0  0  0  0  0  0  0  0  0
    5.7983   -1.7678    0.0000 H   0  0  0  0  0  0  0  0  0  0  0  0
    6.2870   -2.0500    0.0000 H   0  0  0  0  0  0  0  0  0  0  0  0
    5.7158   -0.8250    0.0000 H   0  0  0  0  0  0  0  0  0  0  0  0
    6.0860    0.7372    0.0000 H   0  0  0  0  0  0  0  0  0  0  0  0
    5.3455    0.7372    0.0000 H   0  0  0  0  0  0  0  0  0  0  0  0
    4.6310   -1.1497    0.0000 H   0  0  0  0  0  0  0  0  0  0  0  0
    5.3716   -1.1497    0.0000 H   0  0  0  0  0  0  0  0  0  0  0  0
    4.2868    0.8250    0.0000 C   0  0  0  0  0  0  0  0  0  0  0  0
    3.5724    1.2375    0.0000 C   0  0  0  0  0  0  0  0  0  0  0  0
    2.7845    1.4824    0.0000 H   0  0  0  0  0  0  0  0  0  0  0  0
    3.5724    2.0625    0.0000 C   0  0  0  0  0  0  0  0  0  0  0  0
    2.8579    2.4750    0.0000 H   0  0  0  0  0  0  0  0  0  0  0  0
    4.2868    2.4750    0.0000 C   0  0  0  0  0  0  0  0  0  0  0  0
    4.2868    3.3000    0.0000 H   0  0  0  0  0  0  0  0  0  0  0  0
    5.0013    2.0625    0.0000 C   0  0  0  0  0  0  0  0  0  0  0  0
    5.7158    2.4750    0.0000 Cl  0  0  0  0  0  0  0  0  0  0  0  0
    5.0013    1.2375    0.0000 C   0  0  0  0  0  0  0  0  0  0  0  0
    5.7891    1.4824    0.0000 H   0  0  0  0  0  0  0  0  0  0  0  0
  1  2  2  0  0  0  0
  2  3  1  0  0  0  0
  3  4  1  0  0  0  0
  4  5  2  0  0  0  0
  5  6  1  0  0  0  0
  5  7  1  0  0  0  0
  7  8  2  0  0  0  0
  8  9  1  0  0  0  0
  8 10  1  0  0  0  0
 10 11  2  0  0  0  0
 11 12  1  0  0  0  0
 12 13  2  0  0  0  0
 13 14  1  0  0  0  0
 14 15  1  0  0  0  0
 14 16  2  0  0  0  0
  4 16  1  0  0  0  0
 10 16  1  0  0  0  0
 13 17  1  0  0  0  0
 12 18  1  0  0  0  0
 11 19  1  0  0  0  0
  3 20  1  0  0  0  0
  3 21  1  0  0  0  0
  2 22  1  0  0  0  0
 22 23  1  0  0  0  0
 23 24  1  0  0  0  0
 24 25  1  0  0  0  0
 25 26  1  0  0  0  0
 26 27  1  0  0  0  0
 26 28  1  0  0  0  0
 26 29  1  0  0  0  0
 29 30  1  0  0  0  0
 29 31  1  0  0  0  0
 29 32  1  0  0  0  0
 32 33  1  0  0  0  0
 32 34  1  0  0  0  0
 32 35  1  0  0  0  0
 35 36  1  0  0  0  0
 35 37  1  0  0  0  0
 35 38  1  0  0  0  0
 25 38  1  0  0  0  0
 38 39  1  0  0  0  0
 38 40  1  0  0  0  0
 25 41  1  0  0  0  0
 24 42  1  0  0  0  0
 24 43  1  0  0  0  0
 23 44  1  0  0  0  0
 23 45  1  0  0  0  0
 22 46  1  0  0  0  0
 46 47  2  0  0  0  0
 47 48  1  0  0  0  0
 47 49  1  0  0  0  0
 49 50  1  0  0  0  0
 49 51  2  0  0  0  0
 51 52  1  0  0  0  0
 51 53  1  0  0  0  0
 53 54  1  0  0  0  0
 53 55  2  0  0  0  0
 46 55  1  0  0  0  0
 55 56  1  0  0  0  0
M  END
> <Potency>
2.11245923161491

> <pIC50>
5.675211663753668

> <Outcome>
Active

> <is_active>
1

$$$$

  Mrv1921 08232120312D          

 40 41  0  0  0  0            999 V2000
   -0.3781    4.6013    0.0000 O   0  0  0  0  0  0  0  0  0  0  0  0
    0.0866    5.2830    0.0000 C   0  0  0  0  0  0  0  0  0  0  0  0
   -0.2713    6.0263    0.0000 C   0  0  0  0  0  0  0  0  0  0  0  0
   -1.0940    6.0879    0.0000 Cl  0  0  0  0  0  0  0  0  0  0  0  0
    0.4499    6.4268    0.0000 H   0  0  0  0  0  0  0  0  0  0  0  0
   -0.1620    6.8440    0.0000 H   0  0  0  0  0  0  0  0  0  0  0  0
    0.9093    5.2213    0.0000 N   0  0  0  0  0  0  0  0  0  0  0  0
    1.3218    5.9358    0.0000 C   0  0  0  0  0  0  0  0  0  0  0  0
    1.1989    6.7516    0.0000 H   0  0  0  0  0  0  0  0  0  0  0  0
    0.6073    6.3483    0.0000 H   0  0  0  0  0  0  0  0  0  0  0  0
    2.1376    6.0587    0.0000 C   0  0  0  0  0  0  0  0  0  0  0  0
    2.6987    6.6635    0.0000 H   0  0  0  0  0  0  0  0  0  0  0  0
    2.0146    6.8745    0.0000 H   0  0  0  0  0  0  0  0  0  0  0  0
    2.7424    5.4976    0.0000 C   0  0  0  0  0  0  0  0  0  0  0  0
    3.5651    5.4359    0.0000 H   0  0  0  0  0  0  0  0  0  0  0  0
    3.3035    6.1024    0.0000 H   0  0  0  0  0  0  0  0  0  0  0  0
    2.6807    4.6749    0.0000 N   0  0  0  0  0  0  0  0  0  0  0  0
    3.3952    4.2624    0.0000 S   0  0  0  0  0  0  0  0  0  0  0  0
    2.9827    3.5479    0.0000 O   0  0  0  0  0  0  0  0  0  0  0  0
    3.8077    4.9769    0.0000 O   0  0  0  0  0  0  0  0  0  0  0  0
    4.1097    3.8499    0.0000 C   0  0  0  0  0  0  0  0  0  0  0  0
    4.1097    3.0249    0.0000 C   0  0  0  0  0  0  0  0  0  0  0  0
    4.8241    2.6124    0.0000 C   0  0  0  0  0  0  0  0  0  0  0  0
    5.5386    3.0249    0.0000 H   0  0  0  0  0  0  0  0  0  0  0  0
    4.8241    1.7874    0.0000 C   0  0  0  0  0  0  0  0  0  0  0  0
    5.5386    1.3749    0.0000 H   0  0  0  0  0  0  0  0  0  0  0  0
    4.1097    1.3749    0.0000 C   0  0  0  0  0  0  0  0  0  0  0  0
    4.1097    0.5499    0.0000 H   0  0  0  0  0  0  0  0  0  0  0  0
    3.3952    1.7874    0.0000 C   0  0  0  0  0  0  0  0  0  0  0  0
    2.6807    1.3749    0.0000 H   0  0  0  0  0  0  0  0  0  0  0  0
    3.3952    2.6124    0.0000 C   0  0  0  0  0  0  0  0  0  0  0  0
    2.6807    3.0249    0.0000 H   0  0  0  0  0  0  0  0  0  0  0  0
    4.9333    3.8979    0.0000 H   0  0  0  0  0  0  0  0  0  0  0  0
    4.5630    4.5392    0.0000 H   0  0  0  0  0  0  0  0  0  0  0  0
    1.9991    4.2102    0.0000 C   0  0  0  0  0  0  0  0  0  0  0  0
    1.7559    3.4218    0.0000 H   0  0  0  0  0  0  0  0  0  0  0  0
    2.4638    3.5285    0.0000 H   0  0  0  0  0  0  0  0  0  0  0  0
    1.2107    4.4533    0.0000 C   0  0  0  0  0  0  0  0  0  0  0  0
    0.4427    4.1519    0.0000 H   0  0  0  0  0  0  0  0  0  0  0  0
    0.9675    3.6650    0.0000 H   0  0  0  0  0  0  0  0  0  0  0  0
  1  2  2  0  0  0  0
  2  3  1  0  0  0  0
  3  4  1  0  0  0  0
  3  5  1  0  0  0  0
  3  6  1  0  0  0  0
  2  7  1  0  0  0  0
  7  8  1  0  0  0  0
  8  9  1  0  0  0  0
  8 10  1  0  0  0  0
  8 11  1  0  0  0  0
 11 12  1  0  0  0  0
 11 13  1  0  0  0  0
 11 14  1  0  0  0  0
 14 15  1  0  0  0  0
 14 16  1  0  0  0  0
 14 17  1  0  0  0  0
 17 18  1  0  0  0  0
 18 19  2  0  0  0  0
 18 20  2  0  0  0  0
 18 21  1  0  0  0  0
 21 22  1  0  0  0  0
 22 23  2  0  0  0  0
 23 24  1  0  0  0  0
 23 25  1  0  0  0  0
 25 26  1  0  0  0  0
 25 27  2  0  0  0  0
 27 28  1  0  0  0  0
 27 29  1  0  0  0  0
 29 30  1  0  0  0  0
 29 31  2  0  0  0  0
 22 31  1  0  0  0  0
 31 32  1  0  0  0  0
 21 33  1  0  0  0  0
 21 34  1  0  0  0  0
 17 35  1  0  0  0  0
 35 36  1  0  0  0  0
 35 37  1  0  0  0  0
 35 38  1  0  0  0  0
  7 38  1  0  0  0  0
 38 39  1  0  0  0  0
 38 40  1  0  0  0  0
M  END
> <Potency>
8.81277149592399

> <pIC50>
5.054887490441349

> <Outcome>
Active

> <is_active>
1

$$$$

  Mrv1921 08232120312D          

 62 66  0  0  0  0            999 V2000
   -1.5846   -2.0473    0.0000 N   0  0  0  0  0  0  0  0  0  0  0  0
   -0.7721   -1.9040    0.0000 S   0  0  0  0  0  0  0  0  0  0  0  0
   -0.6289   -2.7165    0.0000 O   0  0  0  0  0  0  0  0  0  0  0  0
   -0.9154   -1.0916    0.0000 O   0  0  0  0  0  0  0  0  0  0  0  0
    0.0403   -1.7608    0.0000 C   0  0  0  0  0  0  0  0  0  0  0  0
    0.3225   -0.9855    0.0000 C   0  0  0  0  0  0  0  0  0  0  0  0
   -0.2078   -0.3536    0.0000 H   0  0  0  0  0  0  0  0  0  0  0  0
    1.1350   -0.8423    0.0000 C   0  0  0  0  0  0  0  0  0  0  0  0
    1.4171   -0.0670    0.0000 H   0  0  0  0  0  0  0  0  0  0  0  0
    1.6653   -1.4743    0.0000 C   0  0  0  0  0  0  0  0  0  0  0  0
    2.4777   -1.3310    0.0000 C   0  0  0  0  0  0  0  0  0  0  0  0
    2.7599   -0.5558    0.0000 N   0  0  0  0  0  0  0  0  0  0  0  0
    3.5724   -0.4125    0.0000 C   0  0  0  0  0  0  0  0  0  0  0  0
    4.1027   -1.0445    0.0000 C   0  0  0  0  0  0  0  0  0  0  0  0
    4.6330   -0.4125    0.0000 C   0  0  0  0  0  0  0  0  0  0  0  0
    5.4454   -0.5558    0.0000 O   0  0  0  0  0  0  0  0  0  0  0  0
    4.3508    0.3627    0.0000 N   0  0  0  0  0  0  0  0  0  0  0  0
    3.5383    0.5060    0.0000 C   0  0  0  0  0  0  0  0  0  0  0  0
    3.0080   -0.1260    0.0000 C   0  0  0  0  0  0  0  0  0  0  0  0
    2.7259    0.6493    0.0000 H   0  0  0  0  0  0  0  0  0  0  0  0
    2.1956    0.0173    0.0000 N   0  0  0  0  0  0  0  0  0  0  0  0
    1.9134    0.7925    0.0000 C   0  0  0  0  0  0  0  0  0  0  0  0
    1.1009    0.9358    0.0000 H   0  0  0  0  0  0  0  0  0  0  0  0
    2.4437    1.4245    0.0000 C   0  0  0  0  0  0  0  0  0  0  0  0
    2.1615    2.1998    0.0000 C   0  0  0  0  0  0  0  0  0  0  0  0
    2.6918    2.8317    0.0000 C   0  0  0  0  0  0  0  0  0  0  0  0
    3.5043    2.6885    0.0000 C   0  0  0  0  0  0  0  0  0  0  0  0
    3.7865    1.9132    0.0000 C   0  0  0  0  0  0  0  0  0  0  0  0
    4.5989    1.7700    0.0000 H   0  0  0  0  0  0  0  0  0  0  0  0
    3.2562    1.2813    0.0000 C   0  0  0  0  0  0  0  0  0  0  0  0
    4.0346    3.3205    0.0000 H   0  0  0  0  0  0  0  0  0  0  0  0
    2.4097    3.6070    0.0000 H   0  0  0  0  0  0  0  0  0  0  0  0
    1.3491    2.3430    0.0000 H   0  0  0  0  0  0  0  0  0  0  0  0
    4.8811    0.9947    0.0000 H   0  0  0  0  0  0  0  0  0  0  0  0
    3.3882   -1.4570    0.0000 C   0  0  0  0  0  0  0  0  0  0  0  0
    4.1027   -1.8695    0.0000 H   0  0  0  0  0  0  0  0  0  0  0  0
    3.6704   -0.6817    0.0000 H   0  0  0  0  0  0  0  0  0  0  0  0
    3.3882   -2.2820    0.0000 C   0  0  0  0  0  0  0  0  0  0  0  0
    2.7089   -2.7502    0.0000 H   0  0  0  0  0  0  0  0  0  0  0  0
    3.4211   -3.1063    0.0000 H   0  0  0  0  0  0  0  0  0  0  0  0
    4.1027   -2.6945    0.0000 O   0  0  0  0  0  0  0  0  0  0  0  0
    4.8171   -2.2820    0.0000 C   0  0  0  0  0  0  0  0  0  0  0  0
    5.5316   -2.6945    0.0000 C   0  0  0  0  0  0  0  0  0  0  0  0
    6.2461   -2.2820    0.0000 C   0  0  0  0  0  0  0  0  0  0  0  0
    6.2461   -1.4570    0.0000 C   0  0  0  0  0  0  0  0  0  0  0  0
    6.9605   -1.0445    0.0000 Cl  0  0  0  0  0  0  0  0  0  0  0  0
    5.5316   -1.0445    0.0000 C   0  0  0  0  0  0  0  0  0  0  0  0
    6.2074   -0.5713    0.0000 H   0  0  0  0  0  0  0  0  0  0  0  0
    4.8171   -1.4570    0.0000 C   0  0  0  0  0  0  0  0  0  0  0  0
    6.9605   -2.6945    0.0000 H   0  0  0  0  0  0  0  0  0  0  0  0
    5.5316   -3.5195    0.0000 H   0  0  0  0  0  0  0  0  0  0  0  0
    4.3422   -0.1160    0.0000 H   0  0  0  0  0  0  0  0  0  0  0  0
    3.2902   -1.1877    0.0000 H   0  0  0  0  0  0  0  0  0  0  0  0
    1.9538   -0.7312    0.0000 H   0  0  0  0  0  0  0  0  0  0  0  0
    2.1166   -2.0728    0.0000 H   0  0  0  0  0  0  0  0  0  0  0  0
    2.8661   -2.0589    0.0000 H   0  0  0  0  0  0  0  0  0  0  0  0
    1.3831   -2.2495    0.0000 C   0  0  0  0  0  0  0  0  0  0  0  0
    1.5514   -3.0572    0.0000 H   0  0  0  0  0  0  0  0  0  0  0  0
    0.5706   -2.3928    0.0000 C   0  0  0  0  0  0  0  0  0  0  0  0
    0.2885   -3.1680    0.0000 H   0  0  0  0  0  0  0  0  0  0  0  0
   -2.1149   -1.4153    0.0000 H   0  0  0  0  0  0  0  0  0  0  0  0
   -1.8668   -2.8226    0.0000 H   0  0  0  0  0  0  0  0  0  0  0  0
  1  2  1  0  0  0  0
  2  3  2  0  0  0  0
  2  4  2  0  0  0  0
  2  5  1  0  0  0  0
  5  6  2  0  0  0  0
  6  7  1  0  0  0  0
  6  8  1  0  0  0  0
  8  9  1  0  0  0  0
  8 10  2  0  0  0  0
 10 11  1  0  0  0  0
 11 12  1  0  0  0  0
 12 13  1  0  0  0  0
 13 14  1  0  0  0  0
 14 15  1  0  0  0  0
 15 16  2  0  0  0  0
 15 17  1  0  0  0  0
 17 18  1  0  0  0  0
 18 19  2  0  0  0  0
 19 20  1  0  0  0  0
 19 21  1  0  0  0  0
 21 22  2  0  0  0  0
 22 23  1  0  0  0  0
 22 24  1  0  0  0  0
 24 25  2  0  0  0  0
 25 26  1  0  0  0  0
 26 27  2  0  0  0  0
 27 28  1  0  0  0  0
 28 29  1  0  0  0  0
 28 30  2  0  0  0  0
 18 30  1  0  0  0  0
 24 30  1  0  0  0  0
 27 31  1  0  0  0  0
 26 32  1  0  0  0  0
 25 33  1  0  0  0  0
 17 34  1  0  0  0  0
 14 35  1  0  0  0  0
 35 36  1  0  0  0  0
 35 37  1  0  0  0  0
 35 38  1  0  0  0  0
 38 39  1  0  0  0  0
 38 40  1  0  0  0  0
 38 41  1  0  0  0  0
 41 42  1  0  0  0  0
 42 43  2  0  0  0  0
 43 44  1  0  0  0  0
 44 45  2  0  0  0  0
 45 46  1  0  0  0  0
 45 47  1  0  0  0  0
 47 48  1  0  0  0  0
 47 49  2  0  0  0  0
 14 49  1  0  0  0  0
 42 49  1  0  0  0  0
 44 50  1  0  0  0  0
 43 51  1  0  0  0  0
 13 52  1  0  0  0  0
 13 53  1  0  0  0  0
 12 54  1  0  0  0  0
 11 55  1  0  0  0  0
 11 56  1  0  0  0  0
 10 57  1  0  0  0  0
 57 58  1  0  0  0  0
 57 59  2  0  0  0  0
  5 59  1  0  0  0  0
 59 60  1  0  0  0  0
  1 61  1  0  0  0  0
  1 62  1  0  0  0  0
M  END
> <Potency>
2.43021833932267

> <pIC50>
5.614354706112284

> <Outcome>
Active

> <is_active>
1

$$$$

  Mrv1921 08232120312D          

 57 60  0  0  0  0            999 V2000
    1.5492   -3.4962    0.0000 C   0  0  0  0  0  0  0  0  0  0  0  0
    2.2636   -3.9087    0.0000 N   0  0  0  0  0  0  0  0  0  0  0  0
    2.2636   -4.7337    0.0000 C   0  0  0  0  0  0  0  0  0  0  0  0
    1.4386   -4.7337    0.0000 H   0  0  0  0  0  0  0  0  0  0  0  0
    2.2636   -5.5587    0.0000 H   0  0  0  0  0  0  0  0  0  0  0  0
    3.0886   -4.7337    0.0000 H   0  0  0  0  0  0  0  0  0  0  0  0
    2.9781   -3.4962    0.0000 C   0  0  0  0  0  0  0  0  0  0  0  0
    2.9781   -2.6712    0.0000 O   0  0  0  0  0  0  0  0  0  0  0  0
    3.6926   -3.9087    0.0000 C   0  0  0  0  0  0  0  0  0  0  0  0
    4.4070   -3.4962    0.0000 N   0  0  0  0  0  0  0  0  0  0  0  0
    5.1215   -3.9087    0.0000 C   0  0  0  0  0  0  0  0  0  0  0  0
    5.1215   -4.7337    0.0000 C   0  0  0  0  0  0  0  0  0  0  0  0
    5.9340   -4.5904    0.0000 C   0  0  0  0  0  0  0  0  0  0  0  0
    6.4643   -5.2224    0.0000 O   0  0  0  0  0  0  0  0  0  0  0  0
    6.2161   -3.8152    0.0000 N   0  0  0  0  0  0  0  0  0  0  0  0
    5.6858   -3.1832    0.0000 C   0  0  0  0  0  0  0  0  0  0  0  0
    4.8734   -3.3265    0.0000 C   0  0  0  0  0  0  0  0  0  0  0  0
    5.1555   -2.5512    0.0000 H   0  0  0  0  0  0  0  0  0  0  0  0
    4.3431   -2.6945    0.0000 N   0  0  0  0  0  0  0  0  0  0  0  0
    4.6252   -1.9192    0.0000 C   0  0  0  0  0  0  0  0  0  0  0  0
    4.0949   -1.2873    0.0000 H   0  0  0  0  0  0  0  0  0  0  0  0
    5.4377   -1.7760    0.0000 C   0  0  0  0  0  0  0  0  0  0  0  0
    5.7199   -1.0007    0.0000 C   0  0  0  0  0  0  0  0  0  0  0  0
    6.5323   -0.8575    0.0000 C   0  0  0  0  0  0  0  0  0  0  0  0
    7.0626   -1.4895    0.0000 C   0  0  0  0  0  0  0  0  0  0  0  0
    6.7805   -2.2647    0.0000 C   0  0  0  0  0  0  0  0  0  0  0  0
    7.3108   -2.8967    0.0000 H   0  0  0  0  0  0  0  0  0  0  0  0
    5.9680   -2.4080    0.0000 C   0  0  0  0  0  0  0  0  0  0  0  0
    7.8751   -1.3462    0.0000 H   0  0  0  0  0  0  0  0  0  0  0  0
    6.8145   -0.0822    0.0000 H   0  0  0  0  0  0  0  0  0  0  0  0
    5.1896   -0.3687    0.0000 H   0  0  0  0  0  0  0  0  0  0  0  0
    7.0286   -3.6719    0.0000 H   0  0  0  0  0  0  0  0  0  0  0  0
    4.3090   -4.5904    0.0000 C   0  0  0  0  0  0  0  0  0  0  0  0
    4.5912   -5.3657    0.0000 H   0  0  0  0  0  0  0  0  0  0  0  0
    5.0235   -4.1779    0.0000 H   0  0  0  0  0  0  0  0  0  0  0  0
    3.7787   -5.2224    0.0000 C   0  0  0  0  0  0  0  0  0  0  0  0
    2.9753   -5.4098    0.0000 H   0  0  0  0  0  0  0  0  0  0  0  0
    3.3859   -5.9479    0.0000 H   0  0  0  0  0  0  0  0  0  0  0  0
    4.0609   -5.9977    0.0000 O   0  0  0  0  0  0  0  0  0  0  0  0
    4.8734   -6.1409    0.0000 C   0  0  0  0  0  0  0  0  0  0  0  0
    5.1555   -6.9162    0.0000 C   0  0  0  0  0  0  0  0  0  0  0  0
    5.9680   -7.0594    0.0000 C   0  0  0  0  0  0  0  0  0  0  0  0
    6.4983   -6.4275    0.0000 C   0  0  0  0  0  0  0  0  0  0  0  0
    7.3108   -6.5707    0.0000 Cl  0  0  0  0  0  0  0  0  0  0  0  0
    6.2161   -5.6522    0.0000 C   0  0  0  0  0  0  0  0  0  0  0  0
    7.0380   -5.7241    0.0000 H   0  0  0  0  0  0  0  0  0  0  0  0
    5.4037   -5.5090    0.0000 C   0  0  0  0  0  0  0  0  0  0  0  0
    6.2502   -7.8347    0.0000 H   0  0  0  0  0  0  0  0  0  0  0  0
    4.6252   -7.5482    0.0000 H   0  0  0  0  0  0  0  0  0  0  0  0
    5.9018   -4.1765    0.0000 H   0  0  0  0  0  0  0  0  0  0  0  0
    4.4070   -4.3212    0.0000 H   0  0  0  0  0  0  0  0  0  0  0  0
    3.6767   -3.1125    0.0000 H   0  0  0  0  0  0  0  0  0  0  0  0
    2.9391   -4.2448    0.0000 H   0  0  0  0  0  0  0  0  0  0  0  0
    3.5222   -4.7159    0.0000 H   0  0  0  0  0  0  0  0  0  0  0  0
    1.9617   -2.7817    0.0000 H   0  0  0  0  0  0  0  0  0  0  0  0
    0.8347   -3.0837    0.0000 H   0  0  0  0  0  0  0  0  0  0  0  0
    1.1367   -4.2107    0.0000 H   0  0  0  0  0  0  0  0  0  0  0  0
  1  2  1  0  0  0  0
  2  3  1  0  0  0  0
  3  4  1  0  0  0  0
  3  5  1  0  0  0  0
  3  6  1  0  0  0  0
  2  7  1  0  0  0  0
  7  8  2  0  0  0  0
  7  9  1  0  0  0  0
  9 10  1  0  0  0  0
 10 11  1  0  0  0  0
 11 12  1  0  0  0  0
 12 13  1  0  0  0  0
 13 14  2  0  0  0  0
 13 15  1  0  0  0  0
 15 16  1  0  0  0  0
 16 17  2  0  0  0  0
 17 18  1  0  0  0  0
 17 19  1  0  0  0  0
 19 20  2  0  0  0  0
 20 21  1  0  0  0  0
 20 22  1  0  0  0  0
 22 23  2  0  0  0  0
 23 24  1  0  0  0  0
 24 25  2  0  0  0  0
 25 26  1  0  0  0  0
 26 27  1  0  0  0  0
 26 28  2  0  0  0  0
 16 28  1  0  0  0  0
 22 28  1  0  0  0  0
 25 29  1  0  0  0  0
 24 30  1  0  0  0  0
 23 31  1  0  0  0  0
 15 32  1  0  0  0  0
 12 33  1  0  0  0  0
 33 34  1  0  0  0  0
 33 35  1  0  0  0  0
 33 36  1  0  0  0  0
 36 37  1  0  0  0  0
 36 38  1  0  0  0  0
 36 39  1  0  0  0  0
 39 40  1  0  0  0  0
 40 41  2  0  0  0  0
 41 42  1  0  0  0  0
 42 43  2  0  0  0  0
 43 44  1  0  0  0  0
 43 45  1  0  0  0  0
 45 46  1  0  0  0  0
 45 47  2  0  0  0  0
 12 47  1  0  0  0  0
 40 47  1  0  0  0  0
 42 48  1  0  0  0  0
 41 49  1  0  0  0  0
 11 50  1  0  0  0  0
 11 51  1  0  0  0  0
 10 52  1  0  0  0  0
  9 53  1  0  0  0  0
  9 54  1  0  0  0  0
  1 55  1  0  0  0  0
  1 56  1  0  0  0  0
  1 57  1  0  0  0  0
M  END
> <Potency>
0.60265376063985

> <pIC50>
6.21993212903869

> <Outcome>
Active

> <is_active>
1

$$$$

  Mrv1921 08232120312D          

 52 56  0  0  0  0            999 V2000
    2.1434   -2.8875    0.0000 O   0  0  0  0  0  0  0  0  0  0  0  0
    1.4289   -2.4750    0.0000 C   0  0  0  0  0  0  0  0  0  0  0  0
    0.7145   -2.8875    0.0000 N   0  0  0  0  0  0  0  0  0  0  0  0
    0.7145   -3.7125    0.0000 C   0  0  0  0  0  0  0  0  0  0  0  0
    1.4289   -4.1250    0.0000 C   0  0  0  0  0  0  0  0  0  0  0  0
    2.1434   -3.7125    0.0000 H   0  0  0  0  0  0  0  0  0  0  0  0
    1.4289   -4.9500    0.0000 N   0  0  0  0  0  0  0  0  0  0  0  0
    0.7145   -5.3625    0.0000 C   0  0  0  0  0  0  0  0  0  0  0  0
    0.7145   -6.1875    0.0000 H   0  0  0  0  0  0  0  0  0  0  0  0
    0.0000   -4.9500    0.0000 C   0  0  0  0  0  0  0  0  0  0  0  0
   -0.7145   -5.3625    0.0000 C   0  0  0  0  0  0  0  0  0  0  0  0
   -1.4289   -4.9500    0.0000 C   0  0  0  0  0  0  0  0  0  0  0  0
   -1.4289   -4.1250    0.0000 C   0  0  0  0  0  0  0  0  0  0  0  0
   -0.7145   -3.7125    0.0000 C   0  0  0  0  0  0  0  0  0  0  0  0
   -0.7145   -2.8875    0.0000 H   0  0  0  0  0  0  0  0  0  0  0  0
    0.0000   -4.1250    0.0000 C   0  0  0  0  0  0  0  0  0  0  0  0
   -2.1434   -3.7125    0.0000 H   0  0  0  0  0  0  0  0  0  0  0  0
   -2.1434   -5.3625    0.0000 H   0  0  0  0  0  0  0  0  0  0  0  0
   -0.7145   -6.1875    0.0000 H   0  0  0  0  0  0  0  0  0  0  0  0
    0.0000   -2.4750    0.0000 H   0  0  0  0  0  0  0  0  0  0  0  0
    1.4289   -1.6500    0.0000 C   0  0  0  0  0  0  0  0  0  0  0  0
    0.7145   -1.2375    0.0000 C   0  0  0  0  0  0  0  0  0  0  0  0
   -0.1091   -1.2855    0.0000 H   0  0  0  0  0  0  0  0  0  0  0  0
    0.2611   -1.9268    0.0000 H   0  0  0  0  0  0  0  0  0  0  0  0
    0.7145   -0.4125    0.0000 C   0  0  0  0  0  0  0  0  0  0  0  0
    0.2611    0.2768    0.0000 H   0  0  0  0  0  0  0  0  0  0  0  0
   -0.1091   -0.3645    0.0000 H   0  0  0  0  0  0  0  0  0  0  0  0
    1.4289    0.0000    0.0000 O   0  0  0  0  0  0  0  0  0  0  0  0
    2.1434   -0.4125    0.0000 C   0  0  0  0  0  0  0  0  0  0  0  0
    2.8579    0.0000    0.0000 C   0  0  0  0  0  0  0  0  0  0  0  0
    2.8579    0.8250    0.0000 O   0  0  0  0  0  0  0  0  0  0  0  0
    2.1434    1.2375    0.0000 C   0  0  0  0  0  0  0  0  0  0  0  0
    2.1434    2.0625    0.0000 C   0  0  0  0  0  0  0  0  0  0  0  0
    1.4289    2.4750    0.0000 C   0  0  0  0  0  0  0  0  0  0  0  0
    0.7145    2.0625    0.0000 H   0  0  0  0  0  0  0  0  0  0  0  0
    1.4289    3.3000    0.0000 C   0  0  0  0  0  0  0  0  0  0  0  0
    0.7145    3.7125    0.0000 H   0  0  0  0  0  0  0  0  0  0  0  0
    2.1434    3.7125    0.0000 C   0  0  0  0  0  0  0  0  0  0  0  0
    2.1434    4.5375    0.0000 H   0  0  0  0  0  0  0  0  0  0  0  0
    2.8579    3.3000    0.0000 C   0  0  0  0  0  0  0  0  0  0  0  0
    3.5724    3.7125    0.0000 H   0  0  0  0  0  0  0  0  0  0  0  0
    2.8579    2.4750    0.0000 N   0  0  0  0  0  0  0  0  0  0  0  0
    1.3198    1.1895    0.0000 H   0  0  0  0  0  0  0  0  0  0  0  0
    1.6901    0.5482    0.0000 H   0  0  0  0  0  0  0  0  0  0  0  0
    3.5724   -0.4125    0.0000 C   0  0  0  0  0  0  0  0  0  0  0  0
    3.5724   -1.2375    0.0000 C   0  0  0  0  0  0  0  0  0  0  0  0
    4.2868   -1.6500    0.0000 Cl  0  0  0  0  0  0  0  0  0  0  0  0
    2.8579   -1.6500    0.0000 C   0  0  0  0  0  0  0  0  0  0  0  0
    3.2704   -2.3645    0.0000 H   0  0  0  0  0  0  0  0  0  0  0  0
    2.1434   -1.2375    0.0000 C   0  0  0  0  0  0  0  0  0  0  0  0
    4.2868   -0.0000    0.0000 H   0  0  0  0  0  0  0  0  0  0  0  0
    2.1434   -2.0625    0.0000 H   0  0  0  0  0  0  0  0  0  0  0  0
  1  2  2  0  0  0  0
  2  3  1  0  0  0  0
  3  4  1  0  0  0  0
  4  5  2  0  0  0  0
  5  6  1  0  0  0  0
  5  7  1  0  0  0  0
  7  8  2  0  0  0  0
  8  9  1  0  0  0  0
  8 10  1  0  0  0  0
 10 11  2  0  0  0  0
 11 12  1  0  0  0  0
 12 13  2  0  0  0  0
 13 14  1  0  0  0  0
 14 15  1  0  0  0  0
 14 16  2  0  0  0  0
  4 16  1  0  0  0  0
 10 16  1  0  0  0  0
 13 17  1  0  0  0  0
 12 18  1  0  0  0  0
 11 19  1  0  0  0  0
  3 20  1  0  0  0  0
  2 21  1  0  0  0  0
 21 22  1  0  0  0  0
 22 23  1  0  0  0  0
 22 24  1  0  0  0  0
 22 25  1  0  0  0  0
 25 26  1  0  0  0  0
 25 27  1  0  0  0  0
 25 28  1  0  0  0  0
 28 29  1  0  0  0  0
 29 30  2  0  0  0  0
 30 31  1  0  0  0  0
 31 32  1  0  0  0  0
 32 33  1  0  0  0  0
 33 34  2  0  0  0  0
 34 35  1  0  0  0  0
 34 36  1  0  0  0  0
 36 37  1  0  0  0  0
 36 38  2  0  0  0  0
 38 39  1  0  0  0  0
 38 40  1  0  0  0  0
 40 41  1  0  0  0  0
 40 42  2  0  0  0  0
 33 42  1  0  0  0  0
 32 43  1  0  0  0  0
 32 44  1  0  0  0  0
 30 45  1  0  0  0  0
 45 46  2  0  0  0  0
 46 47  1  0  0  0  0
 46 48  1  0  0  0  0
 48 49  1  0  0  0  0
 48 50  2  0  0  0  0
 21 50  1  0  0  0  0
 29 50  1  0  0  0  0
 45 51  1  0  0  0  0
 21 52  1  0  0  0  0
M  END
> <Potency>
6.42982845722389

> <pIC50>
5.191800613557095

> <Outcome>
Active

> <is_active>
1

$$$$

  Mrv1921 08232120312D          

 49 52  0  0  0  0            999 V2000
    2.1434   -2.8875    0.0000 O   0  0  0  0  0  0  0  0  0  0  0  0
    1.4289   -2.4750    0.0000 C   0  0  0  0  0  0  0  0  0  0  0  0
    0.7145   -2.8875    0.0000 N   0  0  0  0  0  0  0  0  0  0  0  0
    0.7145   -3.7125    0.0000 C   0  0  0  0  0  0  0  0  0  0  0  0
    1.4289   -4.1250    0.0000 C   0  0  0  0  0  0  0  0  0  0  0  0
    2.1434   -3.7125    0.0000 H   0  0  0  0  0  0  0  0  0  0  0  0
    1.4289   -4.9500    0.0000 N   0  0  0  0  0  0  0  0  0  0  0  0
    0.7145   -5.3625    0.0000 C   0  0  0  0  0  0  0  0  0  0  0  0
    0.7145   -6.1875    0.0000 H   0  0  0  0  0  0  0  0  0  0  0  0
    0.0000   -4.9500    0.0000 C   0  0  0  0  0  0  0  0  0  0  0  0
   -0.7145   -5.3625    0.0000 C   0  0  0  0  0  0  0  0  0  0  0  0
   -1.4289   -4.9500    0.0000 C   0  0  0  0  0  0  0  0  0  0  0  0
   -1.4289   -4.1250    0.0000 C   0  0  0  0  0  0  0  0  0  0  0  0
   -0.7145   -3.7125    0.0000 C   0  0  0  0  0  0  0  0  0  0  0  0
   -0.7145   -2.8875    0.0000 H   0  0  0  0  0  0  0  0  0  0  0  0
    0.0000   -4.1250    0.0000 C   0  0  0  0  0  0  0  0  0  0  0  0
   -2.1434   -3.7125    0.0000 H   0  0  0  0  0  0  0  0  0  0  0  0
   -2.1434   -5.3625    0.0000 H   0  0  0  0  0  0  0  0  0  0  0  0
   -0.7145   -6.1875    0.0000 H   0  0  0  0  0  0  0  0  0  0  0  0
    0.0000   -2.4750    0.0000 H   0  0  0  0  0  0  0  0  0  0  0  0
    1.4289   -1.6500    0.0000 C   0  0  0  0  0  0  0  0  0  0  0  0
    0.7145   -1.2375    0.0000 C   0  0  0  0  0  0  0  0  0  0  0  0
   -0.1091   -1.2855    0.0000 H   0  0  0  0  0  0  0  0  0  0  0  0
    0.2611   -1.9268    0.0000 H   0  0  0  0  0  0  0  0  0  0  0  0
    0.7145   -0.4125    0.0000 C   0  0  0  0  0  0  0  0  0  0  0  0
    0.2611    0.2768    0.0000 H   0  0  0  0  0  0  0  0  0  0  0  0
   -0.1091   -0.3645    0.0000 H   0  0  0  0  0  0  0  0  0  0  0  0
    1.4289    0.0000    0.0000 O   0  0  0  0  0  0  0  0  0  0  0  0
    2.1434   -0.4125    0.0000 C   0  0  0  0  0  0  0  0  0  0  0  0
    2.8579    0.0000    0.0000 C   0  0  0  0  0  0  0  0  0  0  0  0
    2.8579    0.8250    0.0000 O   0  0  0  0  0  0  0  0  0  0  0  0
    2.1434    1.2375    0.0000 C   0  0  0  0  0  0  0  0  0  0  0  0
    2.1434    2.0625    0.0000 C   0  0  0  0  0  0  0  0  0  0  0  0
    1.4289    2.4750    0.0000 C   0  0  0  0  0  0  0  0  0  0  0  0
    0.7145    2.8875    0.0000 F   0  0  0  0  0  0  0  0  0  0  0  0
    1.8414    3.1895    0.0000 F   0  0  0  0  0  0  0  0  0  0  0  0
    1.0164    1.7605    0.0000 F   0  0  0  0  0  0  0  0  0  0  0  0
    2.9670    2.1105    0.0000 H   0  0  0  0  0  0  0  0  0  0  0  0
    2.5968    2.7518    0.0000 H   0  0  0  0  0  0  0  0  0  0  0  0
    1.3198    1.1895    0.0000 H   0  0  0  0  0  0  0  0  0  0  0  0
    1.6901    0.5482    0.0000 H   0  0  0  0  0  0  0  0  0  0  0  0
    3.5724   -0.4125    0.0000 C   0  0  0  0  0  0  0  0  0  0  0  0
    3.5724   -1.2375    0.0000 C   0  0  0  0  0  0  0  0  0  0  0  0
    4.2868   -1.6500    0.0000 Cl  0  0  0  0  0  0  0  0  0  0  0  0
    2.8579   -1.6500    0.0000 C   0  0  0  0  0  0  0  0  0  0  0  0
    3.2704   -2.3645    0.0000 H   0  0  0  0  0  0  0  0  0  0  0  0
    2.1434   -1.2375    0.0000 C   0  0  0  0  0  0  0  0  0  0  0  0
    4.2868   -0.0000    0.0000 H   0  0  0  0  0  0  0  0  0  0  0  0
    2.1434   -2.0625    0.0000 H   0  0  0  0  0  0  0  0  0  0  0  0
  1  2  2  0  0  0  0
  2  3  1  0  0  0  0
  3  4  1  0  0  0  0
  4  5  2  0  0  0  0
  5  6  1  0  0  0  0
  5  7  1  0  0  0  0
  7  8  2  0  0  0  0
  8  9  1  0  0  0  0
  8 10  1  0  0  0  0
 10 11  2  0  0  0  0
 11 12  1  0  0  0  0
 12 13  2  0  0  0  0
 13 14  1  0  0  0  0
 14 15  1  0  0  0  0
 14 16  2  0  0  0  0
  4 16  1  0  0  0  0
 10 16  1  0  0  0  0
 13 17  1  0  0  0  0
 12 18  1  0  0  0  0
 11 19  1  0  0  0  0
  3 20  1  0  0  0  0
  2 21  1  0  0  0  0
 21 22  1  0  0  0  0
 22 23  1  0  0  0  0
 22 24  1  0  0  0  0
 22 25  1  0  0  0  0
 25 26  1  0  0  0  0
 25 27  1  0  0  0  0
 25 28  1  0  0  0  0
 28 29  1  0  0  0  0
 29 30  2  0  0  0  0
 30 31  1  0  0  0  0
 31 32  1  0  0  0  0
 32 33  1  0  0  0  0
 33 34  1  0  0  0  0
 34 35  1  0  0  0  0
 34 36  1  0  0  0  0
 34 37  1  0  0  0  0
 33 38  1  0  0  0  0
 33 39  1  0  0  0  0
 32 40  1  0  0  0  0
 32 41  1  0  0  0  0
 30 42  1  0  0  0  0
 42 43  2  0  0  0  0
 43 44  1  0  0  0  0
 43 45  1  0  0  0  0
 45 46  1  0  0  0  0
 45 47  2  0  0  0  0
 21 47  1  0  0  0  0
 29 47  1  0  0  0  0
 42 48  1  0  0  0  0
 21 49  1  0  0  0  0
M  END
> <Potency>
3.14003036075453

> <pIC50>
5.503066152740666

> <Outcome>
Active

> <is_active>
1

$$$$

  Mrv1921 08232120312D          

 69 72  0  0  0  0            999 V2000
    3.9381   -5.3723    0.0000 C   0  0  0  0  0  0  0  0  0  0  0  0
    4.4782   -5.9959    0.0000 C   0  0  0  0  0  0  0  0  0  0  0  0
    4.2081   -6.7755    0.0000 C   0  0  0  0  0  0  0  0  0  0  0  0
    3.5845   -7.3156    0.0000 H   0  0  0  0  0  0  0  0  0  0  0  0
    4.7482   -7.3991    0.0000 C   0  0  0  0  0  0  0  0  0  0  0  0
    4.4782   -8.1787    0.0000 H   0  0  0  0  0  0  0  0  0  0  0  0
    5.5583   -7.2432    0.0000 N   0  0  0  0  0  0  0  0  0  0  0  0
    5.8284   -6.4637    0.0000 C   0  0  0  0  0  0  0  0  0  0  0  0
    6.0984   -5.6841    0.0000 H   0  0  0  0  0  0  0  0  0  0  0  0
    5.2883   -5.8400    0.0000 C   0  0  0  0  0  0  0  0  0  0  0  0
    5.5583   -5.0605    0.0000 C   0  0  0  0  0  0  0  0  0  0  0  0
    5.0182   -4.4368    0.0000 C   0  0  0  0  0  0  0  0  0  0  0  0
    5.2883   -3.6573    0.0000 O   0  0  0  0  0  0  0  0  0  0  0  0
    4.2081   -4.5927    0.0000 N   0  0  0  0  0  0  0  0  0  0  0  0
    3.6680   -3.9691    0.0000 C   0  0  0  0  0  0  0  0  0  0  0  0
    2.8579   -4.1250    0.0000 C   0  0  0  0  0  0  0  0  0  0  0  0
    2.3178   -3.5014    0.0000 C   0  0  0  0  0  0  0  0  0  0  0  0
    1.5077   -3.6573    0.0000 C   0  0  0  0  0  0  0  0  0  0  0  0
    0.8672   -4.1773    0.0000 H   0  0  0  0  0  0  0  0  0  0  0  0
    0.9676   -3.0336    0.0000 C   0  0  0  0  0  0  0  0  0  0  0  0
    0.1574   -3.1895    0.0000 H   0  0  0  0  0  0  0  0  0  0  0  0
    1.2376   -2.2541    0.0000 C   0  0  0  0  0  0  0  0  0  0  0  0
    0.6975   -1.6304    0.0000 H   0  0  0  0  0  0  0  0  0  0  0  0
    2.0477   -2.0982    0.0000 C   0  0  0  0  0  0  0  0  0  0  0  0
    2.3178   -1.3186    0.0000 F   0  0  0  0  0  0  0  0  0  0  0  0
    2.5878   -2.7218    0.0000 C   0  0  0  0  0  0  0  0  0  0  0  0
    3.1636   -2.1309    0.0000 H   0  0  0  0  0  0  0  0  0  0  0  0
    2.0871   -4.4192    0.0000 H   0  0  0  0  0  0  0  0  0  0  0  0
    2.4566   -4.8458    0.0000 H   0  0  0  0  0  0  0  0  0  0  0  0
    3.7986   -3.1545    0.0000 H   0  0  0  0  0  0  0  0  0  0  0  0
    3.2444   -3.2611    0.0000 H   0  0  0  0  0  0  0  0  0  0  0  0
    4.4782   -3.8132    0.0000 H   0  0  0  0  0  0  0  0  0  0  0  0
    6.3685   -4.9046    0.0000 N   0  0  0  0  0  0  0  0  0  0  0  0
    6.6385   -4.1250    0.0000 C   0  0  0  0  0  0  0  0  0  0  0  0
    6.0984   -3.5014    0.0000 O   0  0  0  0  0  0  0  0  0  0  0  0
    7.4486   -3.9691    0.0000 C   0  0  0  0  0  0  0  0  0  0  0  0
    7.7987   -3.2220    0.0000 C   0  0  0  0  0  0  0  0  0  0  0  0
    7.4001   -2.4997    0.0000 H   0  0  0  0  0  0  0  0  0  0  0  0
    8.6174   -3.3241    0.0000 O   0  0  0  0  0  0  0  0  0  0  0  0
    8.7733   -4.1342    0.0000 C   0  0  0  0  0  0  0  0  0  0  0  0
    9.5203   -4.4843    0.0000 H   0  0  0  0  0  0  0  0  0  0  0  0
    8.0510   -4.5329    0.0000 N   0  0  0  0  0  0  0  0  0  0  0  0
    6.9086   -5.5282    0.0000 C   0  0  0  0  0  0  0  0  0  0  0  0
    7.7187   -5.3723    0.0000 C   0  0  0  0  0  0  0  0  0  0  0  0
    7.1923   -4.7371    0.0000 H   0  0  0  0  0  0  0  0  0  0  0  0
    8.2588   -5.9959    0.0000 C   0  0  0  0  0  0  0  0  0  0  0  0
    9.0689   -5.8400    0.0000 H   0  0  0  0  0  0  0  0  0  0  0  0
    7.9887   -6.7755    0.0000 C   0  0  0  0  0  0  0  0  0  0  0  0
    8.5288   -7.3991    0.0000 C   0  0  0  0  0  0  0  0  0  0  0  0
    9.0689   -8.0228    0.0000 C   0  0  0  0  0  0  0  0  0  0  0  0
    8.4453   -8.5628    0.0000 H   0  0  0  0  0  0  0  0  0  0  0  0
    9.6090   -8.6464    0.0000 H   0  0  0  0  0  0  0  0  0  0  0  0
    9.6926   -7.4827    0.0000 H   0  0  0  0  0  0  0  0  0  0  0  0
    7.9052   -7.9392    0.0000 C   0  0  0  0  0  0  0  0  0  0  0  0
    7.6449   -7.1564    0.0000 H   0  0  0  0  0  0  0  0  0  0  0  0
    7.0823   -7.8801    0.0000 H   0  0  0  0  0  0  0  0  0  0  0  0
    7.5357   -8.6768    0.0000 H   0  0  0  0  0  0  0  0  0  0  0  0
    9.1525   -6.8590    0.0000 C   0  0  0  0  0  0  0  0  0  0  0  0
    9.9353   -6.5987    0.0000 H   0  0  0  0  0  0  0  0  0  0  0  0
    9.2115   -6.0361    0.0000 H   0  0  0  0  0  0  0  0  0  0  0  0
    8.4148   -6.4895    0.0000 H   0  0  0  0  0  0  0  0  0  0  0  0
    7.1786   -6.9314    0.0000 C   0  0  0  0  0  0  0  0  0  0  0  0
    6.3920   -7.1801    0.0000 H   0  0  0  0  0  0  0  0  0  0  0  0
    6.6385   -6.3077    0.0000 C   0  0  0  0  0  0  0  0  0  0  0  0
    7.4486   -6.1518    0.0000 H   0  0  0  0  0  0  0  0  0  0  0  0
    4.7482   -5.2164    0.0000 H   0  0  0  0  0  0  0  0  0  0  0  0
    3.3980   -4.7486    0.0000 H   0  0  0  0  0  0  0  0  0  0  0  0
    3.1279   -5.5282    0.0000 H   0  0  0  0  0  0  0  0  0  0  0  0
    3.6680   -6.1518    0.0000 H   0  0  0  0  0  0  0  0  0  0  0  0
  1  2  1  0  0  0  0
  2  3  2  0  0  0  0
  3  4  1  0  0  0  0
  3  5  1  0  0  0  0
  5  6  1  0  0  0  0
  5  7  2  0  0  0  0
  7  8  1  0  0  0  0
  8  9  1  0  0  0  0
  8 10  2  0  0  0  0
  2 10  1  0  0  0  0
 10 11  1  0  0  0  0
 11 12  1  0  0  0  0
 12 13  2  0  0  0  0
 12 14  1  0  0  0  0
 14 15  1  0  0  0  0
 15 16  1  0  0  0  0
 16 17  1  0  0  0  0
 17 18  2  0  0  0  0
 18 19  1  0  0  0  0
 18 20  1  0  0  0  0
 20 21  1  0  0  0  0
 20 22  2  0  0  0  0
 22 23  1  0  0  0  0
 22 24  1  0  0  0  0
 24 25  1  0  0  0  0
 24 26  2  0  0  0  0
 17 26  1  0  0  0  0
 26 27  1  0  0  0  0
 16 28  1  0  0  0  0
 16 29  1  0  0  0  0
 15 30  1  0  0  0  0
 15 31  1  0  0  0  0
 14 32  1  0  0  0  0
 11 33  1  0  0  0  0
 33 34  1  0  0  0  0
 34 35  2  0  0  0  0
 34 36  1  0  0  0  0
 36 37  2  0  0  0  0
 37 38  1  0  0  0  0
 37 39  1  0  0  0  0
 39 40  1  0  0  0  0
 40 41  1  0  0  0  0
 40 42  2  0  0  0  0
 36 42  1  0  0  0  0
 33 43  1  0  0  0  0
 43 44  2  0  0  0  0
 44 45  1  0  0  0  0
 44 46  1  0  0  0  0
 46 47  1  0  0  0  0
 46 48  2  0  0  0  0
 48 49  1  0  0  0  0
 49 50  1  0  0  0  0
 50 51  1  0  0  0  0
 50 52  1  0  0  0  0
 50 53  1  0  0  0  0
 49 54  1  0  0  0  0
 54 55  1  0  0  0  0
 54 56  1  0  0  0  0
 54 57  1  0  0  0  0
 49 58  1  0  0  0  0
 58 59  1  0  0  0  0
 58 60  1  0  0  0  0
 58 61  1  0  0  0  0
 48 62  1  0  0  0  0
 62 63  1  0  0  0  0
 62 64  2  0  0  0  0
 43 64  1  0  0  0  0
 64 65  1  0  0  0  0
 11 66  1  0  0  0  0
  1 67  1  0  0  0  0
  1 68  1  0  0  0  0
  1 69  1  0  0  0  0
M  END
> <Potency>
0.65281998670917

> <pIC50>
6.185206557709116

> <Outcome>
Active

> <is_active>
1

$$$$

  Mrv1921 08232120312D          

 65 68  0  0  0  0            999 V2000
   -2.4304    1.4228    0.0000 C   0  0  0  0  0  0  0  0  0  0  0  0
   -1.8903    0.7991    0.0000 C   0  0  0  0  0  0  0  0  0  0  0  0
   -2.5140    0.2590    0.0000 C   0  0  0  0  0  0  0  0  0  0  0  0
   -3.2968   -0.0013    0.0000 H   0  0  0  0  0  0  0  0  0  0  0  0
   -2.5730   -0.5639    0.0000 H   0  0  0  0  0  0  0  0  0  0  0  0
   -1.7763   -0.1105    0.0000 H   0  0  0  0  0  0  0  0  0  0  0  0
   -1.2667    1.3392    0.0000 C   0  0  0  0  0  0  0  0  0  0  0  0
   -1.0064    0.5564    0.0000 H   0  0  0  0  0  0  0  0  0  0  0  0
   -0.4438    1.2801    0.0000 H   0  0  0  0  0  0  0  0  0  0  0  0
   -0.8972    2.0768    0.0000 H   0  0  0  0  0  0  0  0  0  0  0  0
   -1.3502    0.1755    0.0000 C   0  0  0  0  0  0  0  0  0  0  0  0
   -0.5401    0.3314    0.0000 C   0  0  0  0  0  0  0  0  0  0  0  0
    0.2465    0.5801    0.0000 H   0  0  0  0  0  0  0  0  0  0  0  0
    0.0000   -0.2923    0.0000 C   0  0  0  0  0  0  0  0  0  0  0  0
    0.5401   -0.9159    0.0000 H   0  0  0  0  0  0  0  0  0  0  0  0
   -0.2700   -1.0718    0.0000 C   0  0  0  0  0  0  0  0  0  0  0  0
    0.2700   -1.6954    0.0000 N   0  0  0  0  0  0  0  0  0  0  0  0
    0.0000   -2.4750    0.0000 C   0  0  0  0  0  0  0  0  0  0  0  0
    0.5401   -3.0986    0.0000 O   0  0  0  0  0  0  0  0  0  0  0  0
   -0.8101   -2.6309    0.0000 C   0  0  0  0  0  0  0  0  0  0  0  0
   -1.1602   -3.3780    0.0000 C   0  0  0  0  0  0  0  0  0  0  0  0
   -0.7616   -4.1003    0.0000 H   0  0  0  0  0  0  0  0  0  0  0  0
   -1.9788   -3.2759    0.0000 O   0  0  0  0  0  0  0  0  0  0  0  0
   -2.1348   -2.4658    0.0000 C   0  0  0  0  0  0  0  0  0  0  0  0
   -2.8818   -2.1157    0.0000 H   0  0  0  0  0  0  0  0  0  0  0  0
   -1.4125   -2.0671    0.0000 N   0  0  0  0  0  0  0  0  0  0  0  0
    1.0802   -1.5395    0.0000 C   0  0  0  0  0  0  0  0  0  0  0  0
    1.6203   -2.1632    0.0000 C   0  0  0  0  0  0  0  0  0  0  0  0
    1.3502   -2.9427    0.0000 O   0  0  0  0  0  0  0  0  0  0  0  0
    2.4304   -2.0073    0.0000 N   0  0  0  0  0  0  0  0  0  0  0  0
    2.9705   -2.6309    0.0000 C   0  0  0  0  0  0  0  0  0  0  0  0
    3.7806   -2.4750    0.0000 C   0  0  0  0  0  0  0  0  0  0  0  0
    4.3207   -3.0986    0.0000 C   0  0  0  0  0  0  0  0  0  0  0  0
    5.1308   -2.9427    0.0000 C   0  0  0  0  0  0  0  0  0  0  0  0
    5.4009   -2.1632    0.0000 H   0  0  0  0  0  0  0  0  0  0  0  0
    5.6709   -3.5664    0.0000 C   0  0  0  0  0  0  0  0  0  0  0  0
    6.4811   -3.4105    0.0000 H   0  0  0  0  0  0  0  0  0  0  0  0
    5.4009   -4.3459    0.0000 C   0  0  0  0  0  0  0  0  0  0  0  0
    5.9410   -4.9696    0.0000 H   0  0  0  0  0  0  0  0  0  0  0  0
    4.5908   -4.5018    0.0000 C   0  0  0  0  0  0  0  0  0  0  0  0
    4.3207   -5.2814    0.0000 F   0  0  0  0  0  0  0  0  0  0  0  0
    4.0507   -3.8782    0.0000 C   0  0  0  0  0  0  0  0  0  0  0  0
    3.2405   -4.0341    0.0000 H   0  0  0  0  0  0  0  0  0  0  0  0
    4.3718   -1.8996    0.0000 H   0  0  0  0  0  0  0  0  0  0  0  0
    3.6721   -1.6572    0.0000 H   0  0  0  0  0  0  0  0  0  0  0  0
    2.3793   -3.2063    0.0000 H   0  0  0  0  0  0  0  0  0  0  0  0
    3.0790   -3.4487    0.0000 H   0  0  0  0  0  0  0  0  0  0  0  0
    2.7004   -1.2277    0.0000 H   0  0  0  0  0  0  0  0  0  0  0  0
    1.3502   -0.7600    0.0000 C   0  0  0  0  0  0  0  0  0  0  0  0
    0.8101   -0.1363    0.0000 C   0  0  0  0  0  0  0  0  0  0  0  0
    1.6203    0.0196    0.0000 H   0  0  0  0  0  0  0  0  0  0  0  0
    1.0802    0.6432    0.0000 N   0  0  0  0  0  0  0  0  0  0  0  0
    1.8903    0.7991    0.0000 C   0  0  0  0  0  0  0  0  0  0  0  0
    2.1604    1.5787    0.0000 H   0  0  0  0  0  0  0  0  0  0  0  0
    2.4304    0.1755    0.0000 N   0  0  0  0  0  0  0  0  0  0  0  0
    2.1604   -0.6041    0.0000 C   0  0  0  0  0  0  0  0  0  0  0  0
    1.8903   -1.3836    0.0000 H   0  0  0  0  0  0  0  0  0  0  0  0
    0.8101   -2.3191    0.0000 H   0  0  0  0  0  0  0  0  0  0  0  0
   -1.0802   -1.2277    0.0000 C   0  0  0  0  0  0  0  0  0  0  0  0
   -1.8935   -1.3660    0.0000 H   0  0  0  0  0  0  0  0  0  0  0  0
   -1.6203   -0.6041    0.0000 C   0  0  0  0  0  0  0  0  0  0  0  0
   -0.8101   -0.4482    0.0000 H   0  0  0  0  0  0  0  0  0  0  0  0
   -1.8068    1.9628    0.0000 H   0  0  0  0  0  0  0  0  0  0  0  0
   -2.9705    2.0464    0.0000 H   0  0  0  0  0  0  0  0  0  0  0  0
   -3.0540    0.8827    0.0000 H   0  0  0  0  0  0  0  0  0  0  0  0
  1  2  1  0  0  0  0
  2  3  1  0  0  0  0
  3  4  1  0  0  0  0
  3  5  1  0  0  0  0
  3  6  1  0  0  0  0
  2  7  1  0  0  0  0
  7  8  1  0  0  0  0
  7  9  1  0  0  0  0
  7 10  1  0  0  0  0
  2 11  1  0  0  0  0
 11 12  2  0  0  0  0
 12 13  1  0  0  0  0
 12 14  1  0  0  0  0
 14 15  1  0  0  0  0
 14 16  2  0  0  0  0
 16 17  1  0  0  0  0
 17 18  1  0  0  0  0
 18 19  2  0  0  0  0
 18 20  1  0  0  0  0
 20 21  2  0  0  0  0
 21 22  1  0  0  0  0
 21 23  1  0  0  0  0
 23 24  1  0  0  0  0
 24 25  1  0  0  0  0
 24 26  2  0  0  0  0
 20 26  1  0  0  0  0
 17 27  1  0  0  0  0
 27 28  1  0  0  0  0
 28 29  2  0  0  0  0
 28 30  1  0  0  0  0
 30 31  1  0  0  0  0
 31 32  1  0  0  0  0
 32 33  1  0  0  0  0
 33 34  2  0  0  0  0
 34 35  1  0  0  0  0
 34 36  1  0  0  0  0
 36 37  1  0  0  0  0
 36 38  2  0  0  0  0
 38 39  1  0  0  0  0
 38 40  1  0  0  0  0
 40 41  1  0  0  0  0
 40 42  2  0  0  0  0
 33 42  1  0  0  0  0
 42 43  1  0  0  0  0
 32 44  1  0  0  0  0
 32 45  1  0  0  0  0
 31 46  1  0  0  0  0
 31 47  1  0  0  0  0
 30 48  1  0  0  0  0
 27 49  1  0  0  0  0
 49 50  2  0  0  0  0
 50 51  1  0  0  0  0
 50 52  1  0  0  0  0
 52 53  2  0  0  0  0
 53 54  1  0  0  0  0
 53 55  1  0  0  0  0
 55 56  2  0  0  0  0
 49 56  1  0  0  0  0
 56 57  1  0  0  0  0
 27 58  1  0  0  0  0
 16 59  1  0  0  0  0
 59 60  1  0  0  0  0
 59 61  2  0  0  0  0
 11 61  1  0  0  0  0
 61 62  1  0  0  0  0
  1 63  1  0  0  0  0
  1 64  1  0  0  0  0
  1 65  1  0  0  0  0
M  END
> <Potency>
2.92175055279495

> <pIC50>
5.534356865119411

> <Outcome>
Active

> <is_active>
1

$$$$

  Mrv1921 08232120312D          

 68 72  0  0  0  0            999 V2000
    2.7599    0.5558    0.0000 O   0  0  0  0  0  0  0  0  0  0  0  0
    3.0421   -0.2195    0.0000 C   0  0  0  0  0  0  0  0  0  0  0  0
    3.8545   -0.3627    0.0000 C   0  0  0  0  0  0  0  0  0  0  0  0
    4.3848    0.2692    0.0000 C   0  0  0  0  0  0  0  0  0  0  0  0
    4.9151   -0.3627    0.0000 C   0  0  0  0  0  0  0  0  0  0  0  0
    4.6330   -1.1380    0.0000 O   0  0  0  0  0  0  0  0  0  0  0  0
    5.7276   -0.2195    0.0000 N   0  0  0  0  0  0  0  0  0  0  0  0
    6.2579   -0.8515    0.0000 C   0  0  0  0  0  0  0  0  0  0  0  0
    7.0704   -0.7082    0.0000 C   0  0  0  0  0  0  0  0  0  0  0  0
    7.7121   -0.1898    0.0000 H   0  0  0  0  0  0  0  0  0  0  0  0
    7.6007   -1.3402    0.0000 N   0  0  0  0  0  0  0  0  0  0  0  0
    7.3185   -2.1154    0.0000 C   0  0  0  0  0  0  0  0  0  0  0  0
    7.8488   -2.7474    0.0000 H   0  0  0  0  0  0  0  0  0  0  0  0
    6.5060   -2.2587    0.0000 C   0  0  0  0  0  0  0  0  0  0  0  0
    6.2239   -3.0340    0.0000 C   0  0  0  0  0  0  0  0  0  0  0  0
    5.4114   -3.1772    0.0000 C   0  0  0  0  0  0  0  0  0  0  0  0
    4.8811   -2.5452    0.0000 C   0  0  0  0  0  0  0  0  0  0  0  0
    5.1633   -1.7700    0.0000 C   0  0  0  0  0  0  0  0  0  0  0  0
    5.4454   -0.9947    0.0000 H   0  0  0  0  0  0  0  0  0  0  0  0
    5.9757   -1.6267    0.0000 C   0  0  0  0  0  0  0  0  0  0  0  0
    4.0686   -2.6885    0.0000 H   0  0  0  0  0  0  0  0  0  0  0  0
    5.1292   -3.9525    0.0000 H   0  0  0  0  0  0  0  0  0  0  0  0
    6.7542   -3.6659    0.0000 H   0  0  0  0  0  0  0  0  0  0  0  0
    6.5245   -0.0060    0.0000 H   0  0  0  0  0  0  0  0  0  0  0  0
    3.6704    0.6817    0.0000 C   0  0  0  0  0  0  0  0  0  0  0  0
    3.5121   -0.1279    0.0000 H   0  0  0  0  0  0  0  0  0  0  0  0
    4.3848    1.0942    0.0000 H   0  0  0  0  0  0  0  0  0  0  0  0
    3.6704    1.5067    0.0000 C   0  0  0  0  0  0  0  0  0  0  0  0
    3.2170    2.1960    0.0000 H   0  0  0  0  0  0  0  0  0  0  0  0
    2.8467    1.5547    0.0000 H   0  0  0  0  0  0  0  0  0  0  0  0
    4.3848    1.9192    0.0000 O   0  0  0  0  0  0  0  0  0  0  0  0
    5.0993    1.5067    0.0000 C   0  0  0  0  0  0  0  0  0  0  0  0
    5.8138    1.9192    0.0000 C   0  0  0  0  0  0  0  0  0  0  0  0
    6.5282    1.5067    0.0000 C   0  0  0  0  0  0  0  0  0  0  0  0
    6.5282    0.6817    0.0000 C   0  0  0  0  0  0  0  0  0  0  0  0
    7.2427    0.2692    0.0000 Cl  0  0  0  0  0  0  0  0  0  0  0  0
    5.8138    0.2692    0.0000 C   0  0  0  0  0  0  0  0  0  0  0  0
    5.0661   -0.0794    0.0000 H   0  0  0  0  0  0  0  0  0  0  0  0
    5.0993    0.6817    0.0000 C   0  0  0  0  0  0  0  0  0  0  0  0
    7.2427    1.9192    0.0000 H   0  0  0  0  0  0  0  0  0  0  0  0
    5.8138    2.7442    0.0000 H   0  0  0  0  0  0  0  0  0  0  0  0
    3.7587   -1.1822    0.0000 H   0  0  0  0  0  0  0  0  0  0  0  0
    4.4546   -0.9289    0.0000 H   0  0  0  0  0  0  0  0  0  0  0  0
    2.5118   -0.8515    0.0000 N   0  0  0  0  0  0  0  0  0  0  0  0
    2.7939   -1.6267    0.0000 C   0  0  0  0  0  0  0  0  0  0  0  0
    3.4557   -2.1194    0.0000 H   0  0  0  0  0  0  0  0  0  0  0  0
    3.5843   -1.3901    0.0000 H   0  0  0  0  0  0  0  0  0  0  0  0
    2.2636   -2.2587    0.0000 C   0  0  0  0  0  0  0  0  0  0  0  0
    2.1678   -3.0781    0.0000 H   0  0  0  0  0  0  0  0  0  0  0  0
    2.8637   -2.8249    0.0000 H   0  0  0  0  0  0  0  0  0  0  0  0
    1.4512   -2.1154    0.0000 N   0  0  0  0  0  0  0  0  0  0  0  0
    0.9209   -2.7474    0.0000 C   0  0  0  0  0  0  0  0  0  0  0  0
    1.2030   -3.5227    0.0000 C   0  0  0  0  0  0  0  0  0  0  0  0
    0.6727   -4.1547    0.0000 C   0  0  0  0  0  0  0  0  0  0  0  0
    0.9549   -4.9299    0.0000 O   0  0  0  0  0  0  0  0  0  0  0  0
    0.4246   -5.5619    0.0000 H   0  0  0  0  0  0  0  0  0  0  0  0
    0.0110   -3.6620    0.0000 H   0  0  0  0  0  0  0  0  0  0  0  0
   -0.1176   -4.3913    0.0000 H   0  0  0  0  0  0  0  0  0  0  0  0
    1.8648   -4.0153    0.0000 H   0  0  0  0  0  0  0  0  0  0  0  0
    1.9934   -3.2861    0.0000 H   0  0  0  0  0  0  0  0  0  0  0  0
    0.2591   -2.2548    0.0000 H   0  0  0  0  0  0  0  0  0  0  0  0
    0.1305   -2.9840    0.0000 H   0  0  0  0  0  0  0  0  0  0  0  0
    1.1690   -1.3402    0.0000 C   0  0  0  0  0  0  0  0  0  0  0  0
    0.5072   -0.8475    0.0000 H   0  0  0  0  0  0  0  0  0  0  0  0
    0.3786   -1.5768    0.0000 H   0  0  0  0  0  0  0  0  0  0  0  0
    1.6993   -0.7082    0.0000 C   0  0  0  0  0  0  0  0  0  0  0  0
    1.7951    0.1112    0.0000 H   0  0  0  0  0  0  0  0  0  0  0  0
    1.0992   -0.1421    0.0000 H   0  0  0  0  0  0  0  0  0  0  0  0
  1  2  2  0  0  0  0
  2  3  1  0  0  0  0
  3  4  1  0  0  0  0
  4  5  1  0  0  0  0
  5  6  2  0  0  0  0
  5  7  1  0  0  0  0
  7  8  1  0  0  0  0
  8  9  2  0  0  0  0
  9 10  1  0  0  0  0
  9 11  1  0  0  0  0
 11 12  2  0  0  0  0
 12 13  1  0  0  0  0
 12 14  1  0  0  0  0
 14 15  2  0  0  0  0
 15 16  1  0  0  0  0
 16 17  2  0  0  0  0
 17 18  1  0  0  0  0
 18 19  1  0  0  0  0
 18 20  2  0  0  0  0
  8 20  1  0  0  0  0
 14 20  1  0  0  0  0
 17 21  1  0  0  0  0
 16 22  1  0  0  0  0
 15 23  1  0  0  0  0
  7 24  1  0  0  0  0
  4 25  1  0  0  0  0
 25 26  1  0  0  0  0
 25 27  1  0  0  0  0
 25 28  1  0  0  0  0
 28 29  1  0  0  0  0
 28 30  1  0  0  0  0
 28 31  1  0  0  0  0
 31 32  1  0  0  0  0
 32 33  2  0  0  0  0
 33 34  1  0  0  0  0
 34 35  2  0  0  0  0
 35 36  1  0  0  0  0
 35 37  1  0  0  0  0
 37 38  1  0  0  0  0
 37 39  2  0  0  0  0
  4 39  1  0  0  0  0
 32 39  1  0  0  0  0
 34 40  1  0  0  0  0
 33 41  1  0  0  0  0
  3 42  1  0  0  0  0
  3 43  1  0  0  0  0
  2 44  1  0  0  0  0
 44 45  1  0  0  0  0
 45 46  1  0  0  0  0
 45 47  1  0  0  0  0
 45 48  1  0  0  0  0
 48 49  1  0  0  0  0
 48 50  1  0  0  0  0
 48 51  1  0  0  0  0
 51 52  1  0  0  0  0
 52 53  1  0  0  0  0
 53 54  1  0  0  0  0
 54 55  1  0  0  0  0
 55 56  1  0  0  0  0
 54 57  1  0  0  0  0
 54 58  1  0  0  0  0
 53 59  1  0  0  0  0
 53 60  1  0  0  0  0
 52 61  1  0  0  0  0
 52 62  1  0  0  0  0
 51 63  1  0  0  0  0
 63 64  1  0  0  0  0
 63 65  1  0  0  0  0
 63 66  1  0  0  0  0
 44 66  1  0  0  0  0
 66 67  1  0  0  0  0
 66 68  1  0  0  0  0
M  END
> <Potency>
9.98099826455137

> <pIC50>
5.000826019924572

> <Outcome>
Active

> <is_active>
1

$$$$

  Mrv1921 08232120312D          

 34 36  0  0  0  0            999 V2000
    2.8579   -2.4750    0.0000 O   0  0  0  0  0  0  0  0  0  0  0  0
    2.1434   -2.8875    0.0000 C   0  0  0  0  0  0  0  0  0  0  0  0
    1.4289   -2.4750    0.0000 N   0  0  0  0  0  0  0  0  0  0  0  0
    1.4289   -1.6500    0.0000 C   0  0  0  0  0  0  0  0  0  0  0  0
    0.7145   -1.2375    0.0000 C   0  0  0  0  0  0  0  0  0  0  0  0
    0.0000   -1.6500    0.0000 H   0  0  0  0  0  0  0  0  0  0  0  0
    0.7145   -0.4125    0.0000 N   0  0  0  0  0  0  0  0  0  0  0  0
    1.4289    0.0000    0.0000 C   0  0  0  0  0  0  0  0  0  0  0  0
    1.4289    0.8250    0.0000 H   0  0  0  0  0  0  0  0  0  0  0  0
    2.1434   -0.4125    0.0000 C   0  0  0  0  0  0  0  0  0  0  0  0
    2.8579    0.0000    0.0000 C   0  0  0  0  0  0  0  0  0  0  0  0
    3.5724   -0.4125    0.0000 C   0  0  0  0  0  0  0  0  0  0  0  0
    3.5724   -1.2375    0.0000 C   0  0  0  0  0  0  0  0  0  0  0  0
    2.8579   -1.6500    0.0000 C   0  0  0  0  0  0  0  0  0  0  0  0
    2.1434   -2.0625    0.0000 H   0  0  0  0  0  0  0  0  0  0  0  0
    2.1434   -1.2375    0.0000 C   0  0  0  0  0  0  0  0  0  0  0  0
    4.2868   -1.6500    0.0000 H   0  0  0  0  0  0  0  0  0  0  0  0
    4.2868   -0.0000    0.0000 H   0  0  0  0  0  0  0  0  0  0  0  0
    2.8579    0.8250    0.0000 H   0  0  0  0  0  0  0  0  0  0  0  0
    0.7145   -2.8875    0.0000 H   0  0  0  0  0  0  0  0  0  0  0  0
    2.1434   -3.7125    0.0000 C   0  0  0  0  0  0  0  0  0  0  0  0
    1.3184   -3.7125    0.0000 F   0  0  0  0  0  0  0  0  0  0  0  0
    2.9684   -3.7125    0.0000 F   0  0  0  0  0  0  0  0  0  0  0  0
    2.1434   -4.5375    0.0000 C   0  0  0  0  0  0  0  0  0  0  0  0
    2.8579   -4.9500    0.0000 C   0  0  0  0  0  0  0  0  0  0  0  0
    3.5724   -4.5375    0.0000 H   0  0  0  0  0  0  0  0  0  0  0  0
    2.8579   -5.7750    0.0000 C   0  0  0  0  0  0  0  0  0  0  0  0
    3.5724   -6.1875    0.0000 H   0  0  0  0  0  0  0  0  0  0  0  0
    2.1434   -6.1875    0.0000 C   0  0  0  0  0  0  0  0  0  0  0  0
    2.1434   -7.0125    0.0000 Cl  0  0  0  0  0  0  0  0  0  0  0  0
    1.4289   -5.7750    0.0000 C   0  0  0  0  0  0  0  0  0  0  0  0
    0.7145   -6.1875    0.0000 Cl  0  0  0  0  0  0  0  0  0  0  0  0
    1.4289   -4.9500    0.0000 C   0  0  0  0  0  0  0  0  0  0  0  0
    0.7145   -4.5375    0.0000 H   0  0  0  0  0  0  0  0  0  0  0  0
  1  2  2  0  0  0  0
  2  3  1  0  0  0  0
  3  4  1  0  0  0  0
  4  5  2  0  0  0  0
  5  6  1  0  0  0  0
  5  7  1  0  0  0  0
  7  8  2  0  0  0  0
  8  9  1  0  0  0  0
  8 10  1  0  0  0  0
 10 11  2  0  0  0  0
 11 12  1  0  0  0  0
 12 13  2  0  0  0  0
 13 14  1  0  0  0  0
 14 15  1  0  0  0  0
 14 16  2  0  0  0  0
  4 16  1  0  0  0  0
 10 16  1  0  0  0  0
 13 17  1  0  0  0  0
 12 18  1  0  0  0  0
 11 19  1  0  0  0  0
  3 20  1  0  0  0  0
  2 21  1  0  0  0  0
 21 22  1  0  0  0  0
 21 23  1  0  0  0  0
 21 24  1  0  0  0  0
 24 25  2  0  0  0  0
 25 26  1  0  0  0  0
 25 27  1  0  0  0  0
 27 28  1  0  0  0  0
 27 29  2  0  0  0  0
 29 30  1  0  0  0  0
 29 31  1  0  0  0  0
 31 32  1  0  0  0  0
 31 33  2  0  0  0  0
 24 33  1  0  0  0  0
 33 34  1  0  0  0  0
M  END
> <Potency>
1.49022641756023

> <pIC50>
5.826747742039667

> <Outcome>
Active

> <is_active>
1

$$$$

  Mrv1921 08232120312D          

 35 37  0  0  0  0            999 V2000
    4.2868   -1.6500    0.0000 N   0  0  0  0  0  0  0  0  0  0  0  0
    4.2868   -0.8250    0.0000 C   0  0  0  0  0  0  0  0  0  0  0  0
    4.2868    0.0000    0.0000 C   0  0  0  0  0  0  0  0  0  0  0  0
    5.0013    0.4125    0.0000 C   0  0  0  0  0  0  0  0  0  0  0  0
    5.0013    1.2375    0.0000 O   0  0  0  0  0  0  0  0  0  0  0  0
    5.7158    0.0000    0.0000 N   0  0  0  0  0  0  0  0  0  0  0  0
    6.4302    0.4125    0.0000 C   0  0  0  0  0  0  0  0  0  0  0  0
    6.4302    1.2375    0.0000 C   0  0  0  0  0  0  0  0  0  0  0  0
    5.7158    1.6500    0.0000 H   0  0  0  0  0  0  0  0  0  0  0  0
    7.1447    1.6500    0.0000 N   0  0  0  0  0  0  0  0  0  0  0  0
    7.8592    1.2375    0.0000 C   0  0  0  0  0  0  0  0  0  0  0  0
    8.5737    1.6500    0.0000 H   0  0  0  0  0  0  0  0  0  0  0  0
    7.8592    0.4125    0.0000 C   0  0  0  0  0  0  0  0  0  0  0  0
    8.5737    0.0000    0.0000 C   0  0  0  0  0  0  0  0  0  0  0  0
    8.5737   -0.8250    0.0000 C   0  0  0  0  0  0  0  0  0  0  0  0
    7.8592   -1.2375    0.0000 C   0  0  0  0  0  0  0  0  0  0  0  0
    7.1447   -0.8250    0.0000 C   0  0  0  0  0  0  0  0  0  0  0  0
    6.4302   -1.2375    0.0000 H   0  0  0  0  0  0  0  0  0  0  0  0
    7.1447    0.0000    0.0000 C   0  0  0  0  0  0  0  0  0  0  0  0
    7.8592   -2.0625    0.0000 H   0  0  0  0  0  0  0  0  0  0  0  0
    9.2881   -1.2375    0.0000 H   0  0  0  0  0  0  0  0  0  0  0  0
    9.2881    0.4125    0.0000 H   0  0  0  0  0  0  0  0  0  0  0  0
    6.1283   -0.7145    0.0000 H   0  0  0  0  0  0  0  0  0  0  0  0
    3.5724    0.4125    0.0000 C   0  0  0  0  0  0  0  0  0  0  0  0
    2.8579    0.0000    0.0000 C   0  0  0  0  0  0  0  0  0  0  0  0
    2.8579   -0.8250    0.0000 H   0  0  0  0  0  0  0  0  0  0  0  0
    2.1434    0.4125    0.0000 C   0  0  0  0  0  0  0  0  0  0  0  0
    1.4289    0.0000    0.0000 H   0  0  0  0  0  0  0  0  0  0  0  0
    2.1434    1.2375    0.0000 C   0  0  0  0  0  0  0  0  0  0  0  0
    1.4289    1.6500    0.0000 Cl  0  0  0  0  0  0  0  0  0  0  0  0
    2.8579    1.6500    0.0000 C   0  0  0  0  0  0  0  0  0  0  0  0
    2.8579    2.4750    0.0000 Cl  0  0  0  0  0  0  0  0  0  0  0  0
    3.5724    1.2375    0.0000 C   0  0  0  0  0  0  0  0  0  0  0  0
    4.2868    1.6500    0.0000 H   0  0  0  0  0  0  0  0  0  0  0  0
    5.0013   -0.4125    0.0000 H   0  0  0  0  0  0  0  0  0  0  0  0
  1  2  3  0  0  0  0
  2  3  1  0  0  0  0
  3  4  1  0  0  0  0
  4  5  2  0  0  0  0
  4  6  1  0  0  0  0
  6  7  1  0  0  0  0
  7  8  2  0  0  0  0
  8  9  1  0  0  0  0
  8 10  1  0  0  0  0
 10 11  2  0  0  0  0
 11 12  1  0  0  0  0
 11 13  1  0  0  0  0
 13 14  2  0  0  0  0
 14 15  1  0  0  0  0
 15 16  2  0  0  0  0
 16 17  1  0  0  0  0
 17 18  1  0  0  0  0
 17 19  2  0  0  0  0
  7 19  1  0  0  0  0
 13 19  1  0  0  0  0
 16 20  1  0  0  0  0
 15 21  1  0  0  0  0
 14 22  1  0  0  0  0
  6 23  1  0  0  0  0
  3 24  1  0  0  0  0
 24 25  2  0  0  0  0
 25 26  1  0  0  0  0
 25 27  1  0  0  0  0
 27 28  1  0  0  0  0
 27 29  2  0  0  0  0
 29 30  1  0  0  0  0
 29 31  1  0  0  0  0
 31 32  1  0  0  0  0
 31 33  2  0  0  0  0
 24 33  1  0  0  0  0
 33 34  1  0  0  0  0
  3 35  1  0  0  0  0
M  END
> <Potency>
0.803102297570765

> <pIC50>
6.095229131631846

> <Outcome>
Active

> <is_active>
1

$$$$

  Mrv1921 08232120312D          

 67 70  0  0  0  0            999 V2000
   -2.4304    1.4228    0.0000 C   0  0  0  0  0  0  0  0  0  0  0  0
   -1.8903    0.7991    0.0000 C   0  0  0  0  0  0  0  0  0  0  0  0
   -2.5140    0.2590    0.0000 C   0  0  0  0  0  0  0  0  0  0  0  0
   -3.2968   -0.0013    0.0000 H   0  0  0  0  0  0  0  0  0  0  0  0
   -2.5730   -0.5639    0.0000 H   0  0  0  0  0  0  0  0  0  0  0  0
   -1.7763   -0.1105    0.0000 H   0  0  0  0  0  0  0  0  0  0  0  0
   -1.2667    1.3392    0.0000 C   0  0  0  0  0  0  0  0  0  0  0  0
   -1.0064    0.5564    0.0000 H   0  0  0  0  0  0  0  0  0  0  0  0
   -0.4438    1.2801    0.0000 H   0  0  0  0  0  0  0  0  0  0  0  0
   -0.8972    2.0768    0.0000 H   0  0  0  0  0  0  0  0  0  0  0  0
   -1.3502    0.1755    0.0000 C   0  0  0  0  0  0  0  0  0  0  0  0
   -0.5401    0.3314    0.0000 C   0  0  0  0  0  0  0  0  0  0  0  0
    0.2465    0.5801    0.0000 H   0  0  0  0  0  0  0  0  0  0  0  0
    0.0000   -0.2923    0.0000 C   0  0  0  0  0  0  0  0  0  0  0  0
    0.5401   -0.9159    0.0000 H   0  0  0  0  0  0  0  0  0  0  0  0
   -0.2700   -1.0718    0.0000 C   0  0  0  0  0  0  0  0  0  0  0  0
    0.2700   -1.6954    0.0000 N   0  0  0  0  0  0  0  0  0  0  0  0
    0.0000   -2.4750    0.0000 C   0  0  0  0  0  0  0  0  0  0  0  0
    0.5401   -3.0986    0.0000 O   0  0  0  0  0  0  0  0  0  0  0  0
   -0.8101   -2.6309    0.0000 C   0  0  0  0  0  0  0  0  0  0  0  0
   -1.1602   -3.3780    0.0000 C   0  0  0  0  0  0  0  0  0  0  0  0
   -0.7616   -4.1003    0.0000 H   0  0  0  0  0  0  0  0  0  0  0  0
   -1.9788   -3.2759    0.0000 C   0  0  0  0  0  0  0  0  0  0  0  0
   -2.5426   -3.8782    0.0000 H   0  0  0  0  0  0  0  0  0  0  0  0
   -2.1348   -2.4658    0.0000 C   0  0  0  0  0  0  0  0  0  0  0  0
   -2.8818   -2.1157    0.0000 Cl  0  0  0  0  0  0  0  0  0  0  0  0
   -1.4125   -2.0671    0.0000 O   0  0  0  0  0  0  0  0  0  0  0  0
    1.0802   -1.5395    0.0000 C   0  0  0  0  0  0  0  0  0  0  0  0
    1.6203   -2.1632    0.0000 C   0  0  0  0  0  0  0  0  0  0  0  0
    1.3502   -2.9427    0.0000 O   0  0  0  0  0  0  0  0  0  0  0  0
    2.4304   -2.0073    0.0000 N   0  0  0  0  0  0  0  0  0  0  0  0
    2.9705   -2.6309    0.0000 C   0  0  0  0  0  0  0  0  0  0  0  0
    3.7806   -2.4750    0.0000 C   0  0  0  0  0  0  0  0  0  0  0  0
    4.3207   -3.0986    0.0000 C   0  0  0  0  0  0  0  0  0  0  0  0
    5.1308   -2.9427    0.0000 C   0  0  0  0  0  0  0  0  0  0  0  0
    5.4009   -2.1632    0.0000 H   0  0  0  0  0  0  0  0  0  0  0  0
    5.6709   -3.5664    0.0000 C   0  0  0  0  0  0  0  0  0  0  0  0
    6.4811   -3.4105    0.0000 H   0  0  0  0  0  0  0  0  0  0  0  0
    5.4009   -4.3459    0.0000 C   0  0  0  0  0  0  0  0  0  0  0  0
    5.9410   -4.9696    0.0000 H   0  0  0  0  0  0  0  0  0  0  0  0
    4.5908   -4.5018    0.0000 C   0  0  0  0  0  0  0  0  0  0  0  0
    4.3207   -5.2814    0.0000 F   0  0  0  0  0  0  0  0  0  0  0  0
    4.0507   -3.8782    0.0000 C   0  0  0  0  0  0  0  0  0  0  0  0
    3.2405   -4.0341    0.0000 H   0  0  0  0  0  0  0  0  0  0  0  0
    4.3718   -1.8996    0.0000 H   0  0  0  0  0  0  0  0  0  0  0  0
    3.6721   -1.6572    0.0000 H   0  0  0  0  0  0  0  0  0  0  0  0
    2.3793   -3.2063    0.0000 H   0  0  0  0  0  0  0  0  0  0  0  0
    3.0790   -3.4487    0.0000 H   0  0  0  0  0  0  0  0  0  0  0  0
    2.7004   -1.2277    0.0000 H   0  0  0  0  0  0  0  0  0  0  0  0
    1.3502   -0.7600    0.0000 C   0  0  0  0  0  0  0  0  0  0  0  0
    0.8101   -0.1363    0.0000 C   0  0  0  0  0  0  0  0  0  0  0  0
    1.6203    0.0196    0.0000 H   0  0  0  0  0  0  0  0  0  0  0  0
    1.0802    0.6432    0.0000 C   0  0  0  0  0  0  0  0  0  0  0  0
    0.9709    1.4609    0.0000 H   0  0  0  0  0  0  0  0  0  0  0  0
    1.8903    0.7991    0.0000 C   0  0  0  0  0  0  0  0  0  0  0  0
    2.1604    1.5787    0.0000 H   0  0  0  0  0  0  0  0  0  0  0  0
    2.4304    0.1755    0.0000 N   0  0  0  0  0  0  0  0  0  0  0  0
    2.1604   -0.6041    0.0000 C   0  0  0  0  0  0  0  0  0  0  0  0
    1.8903   -1.3836    0.0000 H   0  0  0  0  0  0  0  0  0  0  0  0
    0.8101   -2.3191    0.0000 H   0  0  0  0  0  0  0  0  0  0  0  0
   -1.0802   -1.2277    0.0000 C   0  0  0  0  0  0  0  0  0  0  0  0
   -1.8935   -1.3660    0.0000 H   0  0  0  0  0  0  0  0  0  0  0  0
   -1.6203   -0.6041    0.0000 C   0  0  0  0  0  0  0  0  0  0  0  0
   -0.8101   -0.4482    0.0000 H   0  0  0  0  0  0  0  0  0  0  0  0
   -1.8068    1.9628    0.0000 H   0  0  0  0  0  0  0  0  0  0  0  0
   -2.9705    2.0464    0.0000 H   0  0  0  0  0  0  0  0  0  0  0  0
   -3.0540    0.8827    0.0000 H   0  0  0  0  0  0  0  0  0  0  0  0
  1  2  1  0  0  0  0
  2  3  1  0  0  0  0
  3  4  1  0  0  0  0
  3  5  1  0  0  0  0
  3  6  1  0  0  0  0
  2  7  1  0  0  0  0
  7  8  1  0  0  0  0
  7  9  1  0  0  0  0
  7 10  1  0  0  0  0
  2 11  1  0  0  0  0
 11 12  2  0  0  0  0
 12 13  1  0  0  0  0
 12 14  1  0  0  0  0
 14 15  1  0  0  0  0
 14 16  2  0  0  0  0
 16 17  1  0  0  0  0
 17 18  1  0  0  0  0
 18 19  2  0  0  0  0
 18 20  1  0  0  0  0
 20 21  2  0  0  0  0
 21 22  1  0  0  0  0
 21 23  1  0  0  0  0
 23 24  1  0  0  0  0
 23 25  2  0  0  0  0
 25 26  1  0  0  0  0
 25 27  1  0  0  0  0
 20 27  1  0  0  0  0
 17 28  1  0  0  0  0
 28 29  1  0  0  0  0
 29 30  2  0  0  0  0
 29 31  1  0  0  0  0
 31 32  1  0  0  0  0
 32 33  1  0  0  0  0
 33 34  1  0  0  0  0
 34 35  2  0  0  0  0
 35 36  1  0  0  0  0
 35 37  1  0  0  0  0
 37 38  1  0  0  0  0
 37 39  2  0  0  0  0
 39 40  1  0  0  0  0
 39 41  1  0  0  0  0
 41 42  1  0  0  0  0
 41 43  2  0  0  0  0
 34 43  1  0  0  0  0
 43 44  1  0  0  0  0
 33 45  1  0  0  0  0
 33 46  1  0  0  0  0
 32 47  1  0  0  0  0
 32 48  1  0  0  0  0
 31 49  1  0  0  0  0
 28 50  1  0  0  0  0
 50 51  2  0  0  0  0
 51 52  1  0  0  0  0
 51 53  1  0  0  0  0
 53 54  1  0  0  0  0
 53 55  2  0  0  0  0
 55 56  1  0  0  0  0
 55 57  1  0  0  0  0
 57 58  2  0  0  0  0
 50 58  1  0  0  0  0
 58 59  1  0  0  0  0
 28 60  1  0  0  0  0
 16 61  1  0  0  0  0
 61 62  1  0  0  0  0
 61 63  2  0  0  0  0
 11 63  1  0  0  0  0
 63 64  1  0  0  0  0
  1 65  1  0  0  0  0
  1 66  1  0  0  0  0
  1 67  1  0  0  0  0
M  END
> <Potency>
0.314847770015297

> <pIC50>
6.50189937834566

> <Outcome>
Active

> <is_active>
1

$$$$

  Mrv1921 08232120312D          

 40 42  0  0  0  0            999 V2000
   -2.3527    1.1167    0.0000 C   0  0  0  0  0  0  0  0  0  0  0  0
   -2.3527    1.9417    0.0000 C   0  0  0  0  0  0  0  0  0  0  0  0
   -3.0671    2.3542    0.0000 C   0  0  0  0  0  0  0  0  0  0  0  0
   -3.7816    1.9417    0.0000 H   0  0  0  0  0  0  0  0  0  0  0  0
   -3.0671    3.1792    0.0000 C   0  0  0  0  0  0  0  0  0  0  0  0
   -3.7816    3.5917    0.0000 H   0  0  0  0  0  0  0  0  0  0  0  0
   -2.3527    3.5917    0.0000 N   0  0  0  0  0  0  0  0  0  0  0  0
   -1.6382    3.1792    0.0000 C   0  0  0  0  0  0  0  0  0  0  0  0
   -0.9237    3.5917    0.0000 H   0  0  0  0  0  0  0  0  0  0  0  0
   -1.6382    2.3542    0.0000 C   0  0  0  0  0  0  0  0  0  0  0  0
   -0.9237    1.9417    0.0000 N   0  0  0  0  0  0  0  0  0  0  0  0
   -0.2093    2.3542    0.0000 C   0  0  0  0  0  0  0  0  0  0  0  0
   -0.2093    3.1792    0.0000 O   0  0  0  0  0  0  0  0  0  0  0  0
    0.5052    1.9417    0.0000 C   0  0  0  0  0  0  0  0  0  0  0  0
    1.2197    2.3542    0.0000 C   0  0  0  0  0  0  0  0  0  0  0  0
    1.2197    3.1792    0.0000 C   0  0  0  0  0  0  0  0  0  0  0  0
    0.5052    3.5917    0.0000 H   0  0  0  0  0  0  0  0  0  0  0  0
    1.9341    3.5917    0.0000 C   0  0  0  0  0  0  0  0  0  0  0  0
    1.9341    4.4167    0.0000 Cl  0  0  0  0  0  0  0  0  0  0  0  0
    2.6486    3.1792    0.0000 C   0  0  0  0  0  0  0  0  0  0  0  0
    3.3631    3.5917    0.0000 H   0  0  0  0  0  0  0  0  0  0  0  0
    2.6486    2.3542    0.0000 C   0  0  0  0  0  0  0  0  0  0  0  0
    3.3631    1.9417    0.0000 O   0  0  0  0  0  0  0  0  0  0  0  0
    3.3631    1.1167    0.0000 C   0  0  0  0  0  0  0  0  0  0  0  0
    3.9465    0.5333    0.0000 C   0  0  0  0  0  0  0  0  0  0  0  0
    4.6609    0.1208    0.0000 H   0  0  0  0  0  0  0  0  0  0  0  0
    4.6609    0.9458    0.0000 H   0  0  0  0  0  0  0  0  0  0  0  0
    3.3631   -0.0500    0.0000 C   0  0  0  0  0  0  0  0  0  0  0  0
    3.3631   -0.8750    0.0000 O   0  0  0  0  0  0  0  0  0  0  0  0
    2.7797    0.5333    0.0000 N   0  0  0  0  0  0  0  0  0  0  0  0
    2.0521    0.1444    0.0000 H   0  0  0  0  0  0  0  0  0  0  0  0
    2.6009    1.4324    0.0000 H   0  0  0  0  0  0  0  0  0  0  0  0
    1.9341    1.9417    0.0000 C   0  0  0  0  0  0  0  0  0  0  0  0
    1.4766    1.2552    0.0000 H   0  0  0  0  0  0  0  0  0  0  0  0
    0.1349    1.2044    0.0000 H   0  0  0  0  0  0  0  0  0  0  0  0
    0.8755    1.2044    0.0000 H   0  0  0  0  0  0  0  0  0  0  0  0
   -0.9237    1.1167    0.0000 H   0  0  0  0  0  0  0  0  0  0  0  0
   -3.1777    1.1167    0.0000 H   0  0  0  0  0  0  0  0  0  0  0  0
   -2.3527    0.2917    0.0000 H   0  0  0  0  0  0  0  0  0  0  0  0
   -1.5277    1.1167    0.0000 H   0  0  0  0  0  0  0  0  0  0  0  0
  1  2  1  0  0  0  0
  2  3  2  0  0  0  0
  3  4  1  0  0  0  0
  3  5  1  0  0  0  0
  5  6  1  0  0  0  0
  5  7  2  0  0  0  0
  7  8  1  0  0  0  0
  8  9  1  0  0  0  0
  8 10  2  0  0  0  0
  2 10  1  0  0  0  0
 10 11  1  0  0  0  0
 11 12  1  0  0  0  0
 12 13  2  0  0  0  0
 12 14  1  0  0  0  0
 14 15  1  0  0  0  0
 15 16  2  0  0  0  0
 16 17  1  0  0  0  0
 16 18  1  0  0  0  0
 18 19  1  0  0  0  0
 18 20  2  0  0  0  0
 20 21  1  0  0  0  0
 20 22  1  0  0  0  0
 22 23  1  0  0  0  0
 23 24  1  0  0  0  0
 24 25  1  0  0  0  0
 25 26  1  0  0  0  0
 25 27  1  0  0  0  0
 25 28  1  0  0  0  0
 28 29  2  0  0  0  0
 28 30  1  0  0  0  0
 24 30  1  0  0  0  0
 30 31  1  0  0  0  0
 24 32  1  0  0  0  0
 22 33  2  0  0  0  0
 15 33  1  0  0  0  0
 33 34  1  0  0  0  0
 14 35  1  0  0  0  0
 14 36  1  0  0  0  0
 11 37  1  0  0  0  0
  1 38  1  0  0  0  0
  1 39  1  0  0  0  0
  1 40  1  0  0  0  0
M  END
> <Potency>
3.6098563119233

> <pIC50>
5.4425100845710075

> <Outcome>
Active

> <is_active>
1

$$$$

  Mrv1921 08232120312D          

 33 34  0  0  0  0            999 V2000
    2.8579   -1.6500    0.0000 C   0  0  0  0  0  0  0  0  0  0  0  0
    2.8579   -2.4750    0.0000 C   0  0  0  0  0  0  0  0  0  0  0  0
    3.5724   -2.8875    0.0000 C   0  0  0  0  0  0  0  0  0  0  0  0
    4.2868   -2.4750    0.0000 N   0  0  0  0  0  0  0  0  0  0  0  0
    4.9761   -2.9283    0.0000 H   0  0  0  0  0  0  0  0  0  0  0  0
    4.9761   -2.0217    0.0000 H   0  0  0  0  0  0  0  0  0  0  0  0
    3.5724   -3.7125    0.0000 C   0  0  0  0  0  0  0  0  0  0  0  0
    4.2868   -4.1250    0.0000 H   0  0  0  0  0  0  0  0  0  0  0  0
    2.8579   -4.1250    0.0000 N   0  0  0  0  0  0  0  0  0  0  0  0
    2.1434   -3.7125    0.0000 C   0  0  0  0  0  0  0  0  0  0  0  0
    1.4289   -4.1250    0.0000 H   0  0  0  0  0  0  0  0  0  0  0  0
    2.1434   -2.8875    0.0000 C   0  0  0  0  0  0  0  0  0  0  0  0
    1.4289   -2.4750    0.0000 N   0  0  0  0  0  0  0  0  0  0  0  0
    1.4289   -1.6500    0.0000 C   0  0  0  0  0  0  0  0  0  0  0  0
    2.1434   -1.2375    0.0000 O   0  0  0  0  0  0  0  0  0  0  0  0
    0.7145   -1.2375    0.0000 C   0  0  0  0  0  0  0  0  0  0  0  0
    0.7145   -0.4125    0.0000 C   0  0  0  0  0  0  0  0  0  0  0  0
    0.0000    0.0000    0.0000 C   0  0  0  0  0  0  0  0  0  0  0  0
   -0.7145   -0.4125    0.0000 H   0  0  0  0  0  0  0  0  0  0  0  0
    0.0000    0.8250    0.0000 C   0  0  0  0  0  0  0  0  0  0  0  0
   -0.7145    1.2375    0.0000 H   0  0  0  0  0  0  0  0  0  0  0  0
    0.7145    1.2375    0.0000 C   0  0  0  0  0  0  0  0  0  0  0  0
    0.7145    2.0625    0.0000 H   0  0  0  0  0  0  0  0  0  0  0  0
    1.4289    0.8250    0.0000 C   0  0  0  0  0  0  0  0  0  0  0  0
    2.1434    1.2375    0.0000 Cl  0  0  0  0  0  0  0  0  0  0  0  0
    1.4289    0.0000    0.0000 C   0  0  0  0  0  0  0  0  0  0  0  0
    2.1434   -0.4125    0.0000 H   0  0  0  0  0  0  0  0  0  0  0  0
   -0.1091   -1.2855    0.0000 H   0  0  0  0  0  0  0  0  0  0  0  0
    0.2611   -1.9268    0.0000 H   0  0  0  0  0  0  0  0  0  0  0  0
    0.7145   -2.8875    0.0000 H   0  0  0  0  0  0  0  0  0  0  0  0
    3.5724   -2.0625    0.0000 H   0  0  0  0  0  0  0  0  0  0  0  0
    3.5724   -1.2375    0.0000 H   0  0  0  0  0  0  0  0  0  0  0  0
    2.8579   -0.8250    0.0000 H   0  0  0  0  0  0  0  0  0  0  0  0
  1  2  1  0  0  0  0
  2  3  2  0  0  0  0
  3  4  1  0  0  0  0
  4  5  1  0  0  0  0
  4  6  1  0  0  0  0
  3  7  1  0  0  0  0
  7  8  1  0  0  0  0
  7  9  2  0  0  0  0
  9 10  1  0  0  0  0
 10 11  1  0  0  0  0
 10 12  2  0  0  0  0
  2 12  1  0  0  0  0
 12 13  1  0  0  0  0
 13 14  1  0  0  0  0
 14 15  2  0  0  0  0
 14 16  1  0  0  0  0
 16 17  1  0  0  0  0
 17 18  2  0  0  0  0
 18 19  1  0  0  0  0
 18 20  1  0  0  0  0
 20 21  1  0  0  0  0
 20 22  2  0  0  0  0
 22 23  1  0  0  0  0
 22 24  1  0  0  0  0
 24 25  1  0  0  0  0
 24 26  2  0  0  0  0
 17 26  1  0  0  0  0
 26 27  1  0  0  0  0
 16 28  1  0  0  0  0
 16 29  1  0  0  0  0
 13 30  1  0  0  0  0
  1 31  1  0  0  0  0
  1 32  1  0  0  0  0
  1 33  1  0  0  0  0
M  END
> <Potency>
4.22233976382304

> <pIC50>
5.374446822753493

> <Outcome>
Active

> <is_active>
1

$$$$

  Mrv1921 08232120312D          

 31 33  0  0  0  0            999 V2000
    1.8500    2.0625    0.0000 O   0  0  0  0  0  0  0  0  0  0  0  0
    2.5645    2.4750    0.0000 C   0  0  0  0  0  0  0  0  0  0  0  0
    2.5645    3.3000    0.0000 C   0  0  0  0  0  0  0  0  0  0  0  0
    1.8500    3.7125    0.0000 C   0  0  0  0  0  0  0  0  0  0  0  0
    1.1355    3.3000    0.0000 C   0  0  0  0  0  0  0  0  0  0  0  0
    1.1355    2.4750    0.0000 H   0  0  0  0  0  0  0  0  0  0  0  0
    0.4210    3.7125    0.0000 C   0  0  0  0  0  0  0  0  0  0  0  0
   -0.2934    3.3000    0.0000 H   0  0  0  0  0  0  0  0  0  0  0  0
    0.4210    4.5375    0.0000 C   0  0  0  0  0  0  0  0  0  0  0  0
   -0.2934    4.9500    0.0000 H   0  0  0  0  0  0  0  0  0  0  0  0
    1.1355    4.9500    0.0000 C   0  0  0  0  0  0  0  0  0  0  0  0
    1.1355    5.7750    0.0000 Cl  0  0  0  0  0  0  0  0  0  0  0  0
    1.8500    4.5375    0.0000 C   0  0  0  0  0  0  0  0  0  0  0  0
    2.5645    4.9500    0.0000 H   0  0  0  0  0  0  0  0  0  0  0  0
    3.3881    3.3480    0.0000 H   0  0  0  0  0  0  0  0  0  0  0  0
    3.0178    3.9893    0.0000 H   0  0  0  0  0  0  0  0  0  0  0  0
    3.2789    2.0625    0.0000 N   0  0  0  0  0  0  0  0  0  0  0  0
    3.2789    1.2375    0.0000 C   0  0  0  0  0  0  0  0  0  0  0  0
    3.9934    0.8250    0.0000 C   0  0  0  0  0  0  0  0  0  0  0  0
    4.7079    1.2375    0.0000 H   0  0  0  0  0  0  0  0  0  0  0  0
    3.9934    0.0000    0.0000 N   0  0  0  0  0  0  0  0  0  0  0  0
    3.2789   -0.4125    0.0000 C   0  0  0  0  0  0  0  0  0  0  0  0
    3.2789   -1.2375    0.0000 H   0  0  0  0  0  0  0  0  0  0  0  0
    2.5645    0.0000    0.0000 C   0  0  0  0  0  0  0  0  0  0  0  0
    1.7798   -0.2549    0.0000 C   0  0  0  0  0  0  0  0  0  0  0  0
    1.2949    0.4125    0.0000 N   0  0  0  0  0  0  0  0  0  0  0  0
    1.7798    1.0799    0.0000 N   0  0  0  0  0  0  0  0  0  0  0  0
    1.5249    1.8646    0.0000 H   0  0  0  0  0  0  0  0  0  0  0  0
    2.5645    0.8250    0.0000 C   0  0  0  0  0  0  0  0  0  0  0  0
    1.5249   -1.0396    0.0000 H   0  0  0  0  0  0  0  0  0  0  0  0
    3.9934    2.4750    0.0000 H   0  0  0  0  0  0  0  0  0  0  0  0
  1  2  2  0  0  0  0
  2  3  1  0  0  0  0
  3  4  1  0  0  0  0
  4  5  2  0  0  0  0
  5  6  1  0  0  0  0
  5  7  1  0  0  0  0
  7  8  1  0  0  0  0
  7  9  2  0  0  0  0
  9 10  1  0  0  0  0
  9 11  1  0  0  0  0
 11 12  1  0  0  0  0
 11 13  2  0  0  0  0
  4 13  1  0  0  0  0
 13 14  1  0  0  0  0
  3 15  1  0  0  0  0
  3 16  1  0  0  0  0
  2 17  1  0  0  0  0
 17 18  1  0  0  0  0
 18 19  1  0  0  0  0
 19 20  1  0  0  0  0
 19 21  2  0  0  0  0
 21 22  1  0  0  0  0
 22 23  1  0  0  0  0
 22 24  2  0  0  0  0
 24 25  1  0  0  0  0
 25 26  2  0  0  0  0
 26 27  1  0  0  0  0
 27 28  1  0  0  0  0
 27 29  1  0  0  0  0
 18 29  2  0  0  0  0
 24 29  1  0  0  0  0
 25 30  1  0  0  0  0
 17 31  1  0  0  0  0
M  END
> <Potency>
2.10357043346894

> <pIC50>
5.677042941999827

> <Outcome>
Active

> <is_active>
1

$$$$

  Mrv1921 08232120312D          

 43 45  0  0  0  0            999 V2000
   -1.4289   -7.4250    0.0000 C   0  0  0  0  0  0  0  0  0  0  0  0
   -1.4289   -6.6000    0.0000 C   0  0  0  0  0  0  0  0  0  0  0  0
   -0.7145   -6.1875    0.0000 C   0  0  0  0  0  0  0  0  0  0  0  0
   -0.7145   -5.3625    0.0000 C   0  0  0  0  0  0  0  0  0  0  0  0
   -1.4289   -4.9500    0.0000 C   0  0  0  0  0  0  0  0  0  0  0  0
   -2.1434   -5.3625    0.0000 H   0  0  0  0  0  0  0  0  0  0  0  0
   -1.4289   -4.1250    0.0000 C   0  0  0  0  0  0  0  0  0  0  0  0
   -2.1434   -3.7125    0.0000 Cl  0  0  0  0  0  0  0  0  0  0  0  0
   -0.7145   -3.7125    0.0000 C   0  0  0  0  0  0  0  0  0  0  0  0
   -0.7145   -2.8875    0.0000 H   0  0  0  0  0  0  0  0  0  0  0  0
    0.0000   -4.1250    0.0000 C   0  0  0  0  0  0  0  0  0  0  0  0
    0.7145   -3.7125    0.0000 C   0  0  0  0  0  0  0  0  0  0  0  0
    0.7145   -2.8875    0.0000 C   0  0  0  0  0  0  0  0  0  0  0  0
    0.0000   -2.4750    0.0000 O   0  0  0  0  0  0  0  0  0  0  0  0
    1.4289   -2.4750    0.0000 N   0  0  0  0  0  0  0  0  0  0  0  0
    1.4289   -1.6500    0.0000 C   0  0  0  0  0  0  0  0  0  0  0  0
    0.7145   -1.2375    0.0000 C   0  0  0  0  0  0  0  0  0  0  0  0
    0.0000   -1.6500    0.0000 H   0  0  0  0  0  0  0  0  0  0  0  0
    0.7145   -0.4125    0.0000 N   0  0  0  0  0  0  0  0  0  0  0  0
    1.4289    0.0000    0.0000 C   0  0  0  0  0  0  0  0  0  0  0  0
    1.4289    0.8250    0.0000 H   0  0  0  0  0  0  0  0  0  0  0  0
    2.1434   -0.4125    0.0000 C   0  0  0  0  0  0  0  0  0  0  0  0
    2.8579    0.0000    0.0000 C   0  0  0  0  0  0  0  0  0  0  0  0
    3.5724   -0.4125    0.0000 C   0  0  0  0  0  0  0  0  0  0  0  0
    3.5724   -1.2375    0.0000 C   0  0  0  0  0  0  0  0  0  0  0  0
    2.8579   -1.6500    0.0000 C   0  0  0  0  0  0  0  0  0  0  0  0
    2.8579   -2.4750    0.0000 H   0  0  0  0  0  0  0  0  0  0  0  0
    2.1434   -1.2375    0.0000 C   0  0  0  0  0  0  0  0  0  0  0  0
    4.2868   -1.6500    0.0000 H   0  0  0  0  0  0  0  0  0  0  0  0
    4.2868   -0.0000    0.0000 H   0  0  0  0  0  0  0  0  0  0  0  0
    2.8579    0.8250    0.0000 H   0  0  0  0  0  0  0  0  0  0  0  0
    2.1434   -2.8875    0.0000 H   0  0  0  0  0  0  0  0  0  0  0  0
    1.1678   -4.4018    0.0000 H   0  0  0  0  0  0  0  0  0  0  0  0
    1.5381   -3.7605    0.0000 H   0  0  0  0  0  0  0  0  0  0  0  0
    0.0000   -4.9500    0.0000 C   0  0  0  0  0  0  0  0  0  0  0  0
    0.7145   -5.3625    0.0000 H   0  0  0  0  0  0  0  0  0  0  0  0
   -0.2611   -6.8768    0.0000 H   0  0  0  0  0  0  0  0  0  0  0  0
    0.1091   -6.2355    0.0000 H   0  0  0  0  0  0  0  0  0  0  0  0
   -1.8823   -5.9107    0.0000 H   0  0  0  0  0  0  0  0  0  0  0  0
   -2.2525   -6.5520    0.0000 H   0  0  0  0  0  0  0  0  0  0  0  0
   -2.2539   -7.4250    0.0000 H   0  0  0  0  0  0  0  0  0  0  0  0
   -1.4289   -8.2500    0.0000 H   0  0  0  0  0  0  0  0  0  0  0  0
   -0.6039   -7.4250    0.0000 H   0  0  0  0  0  0  0  0  0  0  0  0
  1  2  1  0  0  0  0
  2  3  1  0  0  0  0
  3  4  1  0  0  0  0
  4  5  2  0  0  0  0
  5  6  1  0  0  0  0
  5  7  1  0  0  0  0
  7  8  1  0  0  0  0
  7  9  2  0  0  0  0
  9 10  1  0  0  0  0
  9 11  1  0  0  0  0
 11 12  1  0  0  0  0
 12 13  1  0  0  0  0
 13 14  2  0  0  0  0
 13 15  1  0  0  0  0
 15 16  1  0  0  0  0
 16 17  2  0  0  0  0
 17 18  1  0  0  0  0
 17 19  1  0  0  0  0
 19 20  2  0  0  0  0
 20 21  1  0  0  0  0
 20 22  1  0  0  0  0
 22 23  2  0  0  0  0
 23 24  1  0  0  0  0
 24 25  2  0  0  0  0
 25 26  1  0  0  0  0
 26 27  1  0  0  0  0
 26 28  2  0  0  0  0
 16 28  1  0  0  0  0
 22 28  1  0  0  0  0
 25 29  1  0  0  0  0
 24 30  1  0  0  0  0
 23 31  1  0  0  0  0
 15 32  1  0  0  0  0
 12 33  1  0  0  0  0
 12 34  1  0  0  0  0
 11 35  2  0  0  0  0
  4 35  1  0  0  0  0
 35 36  1  0  0  0  0
  3 37  1  0  0  0  0
  3 38  1  0  0  0  0
  2 39  1  0  0  0  0
  2 40  1  0  0  0  0
  1 41  1  0  0  0  0
  1 42  1  0  0  0  0
  1 43  1  0  0  0  0
M  END
> <Potency>
2.6465031149685

> <pIC50>
5.577327590502173

> <Outcome>
Active

> <is_active>
1

$$$$

  Mrv1921 08232120312D          

 57 60  0  0  0  0            999 V2000
    1.5492   -3.4962    0.0000 C   0  0  0  0  0  0  0  0  0  0  0  0
    2.2636   -3.9087    0.0000 N   0  0  0  0  0  0  0  0  0  0  0  0
    2.2636   -4.7337    0.0000 C   0  0  0  0  0  0  0  0  0  0  0  0
    1.4386   -4.7337    0.0000 H   0  0  0  0  0  0  0  0  0  0  0  0
    2.2636   -5.5587    0.0000 H   0  0  0  0  0  0  0  0  0  0  0  0
    3.0886   -4.7337    0.0000 H   0  0  0  0  0  0  0  0  0  0  0  0
    2.9781   -3.4962    0.0000 C   0  0  0  0  0  0  0  0  0  0  0  0
    3.6926   -3.9087    0.0000 C   0  0  0  0  0  0  0  0  0  0  0  0
    3.6926   -4.7337    0.0000 O   0  0  0  0  0  0  0  0  0  0  0  0
    4.4070   -3.4962    0.0000 N   0  0  0  0  0  0  0  0  0  0  0  0
    5.1215   -3.9087    0.0000 C   0  0  0  0  0  0  0  0  0  0  0  0
    5.1215   -4.7337    0.0000 C   0  0  0  0  0  0  0  0  0  0  0  0
    5.9340   -4.5904    0.0000 C   0  0  0  0  0  0  0  0  0  0  0  0
    6.4643   -5.2224    0.0000 O   0  0  0  0  0  0  0  0  0  0  0  0
    6.2161   -3.8152    0.0000 N   0  0  0  0  0  0  0  0  0  0  0  0
    5.6858   -3.1832    0.0000 C   0  0  0  0  0  0  0  0  0  0  0  0
    4.8734   -3.3265    0.0000 C   0  0  0  0  0  0  0  0  0  0  0  0
    5.1555   -2.5512    0.0000 H   0  0  0  0  0  0  0  0  0  0  0  0
    4.3431   -2.6945    0.0000 N   0  0  0  0  0  0  0  0  0  0  0  0
    4.6252   -1.9192    0.0000 C   0  0  0  0  0  0  0  0  0  0  0  0
    4.0949   -1.2873    0.0000 H   0  0  0  0  0  0  0  0  0  0  0  0
    5.4377   -1.7760    0.0000 C   0  0  0  0  0  0  0  0  0  0  0  0
    5.7199   -1.0007    0.0000 C   0  0  0  0  0  0  0  0  0  0  0  0
    6.5323   -0.8575    0.0000 C   0  0  0  0  0  0  0  0  0  0  0  0
    7.0626   -1.4895    0.0000 C   0  0  0  0  0  0  0  0  0  0  0  0
    6.7805   -2.2647    0.0000 C   0  0  0  0  0  0  0  0  0  0  0  0
    7.3108   -2.8967    0.0000 H   0  0  0  0  0  0  0  0  0  0  0  0
    5.9680   -2.4080    0.0000 C   0  0  0  0  0  0  0  0  0  0  0  0
    7.8751   -1.3462    0.0000 H   0  0  0  0  0  0  0  0  0  0  0  0
    6.8145   -0.0822    0.0000 H   0  0  0  0  0  0  0  0  0  0  0  0
    5.1896   -0.3687    0.0000 H   0  0  0  0  0  0  0  0  0  0  0  0
    7.0286   -3.6719    0.0000 H   0  0  0  0  0  0  0  0  0  0  0  0
    4.3090   -4.5904    0.0000 C   0  0  0  0  0  0  0  0  0  0  0  0
    4.5912   -5.3657    0.0000 H   0  0  0  0  0  0  0  0  0  0  0  0
    5.0235   -4.1779    0.0000 H   0  0  0  0  0  0  0  0  0  0  0  0
    3.7787   -5.2224    0.0000 C   0  0  0  0  0  0  0  0  0  0  0  0
    2.9753   -5.4098    0.0000 H   0  0  0  0  0  0  0  0  0  0  0  0
    3.3859   -5.9479    0.0000 H   0  0  0  0  0  0  0  0  0  0  0  0
    4.0609   -5.9977    0.0000 O   0  0  0  0  0  0  0  0  0  0  0  0
    4.8734   -6.1409    0.0000 C   0  0  0  0  0  0  0  0  0  0  0  0
    5.1555   -6.9162    0.0000 C   0  0  0  0  0  0  0  0  0  0  0  0
    5.9680   -7.0594    0.0000 C   0  0  0  0  0  0  0  0  0  0  0  0
    6.4983   -6.4275    0.0000 C   0  0  0  0  0  0  0  0  0  0  0  0
    7.3108   -6.5707    0.0000 Cl  0  0  0  0  0  0  0  0  0  0  0  0
    6.2161   -5.6522    0.0000 C   0  0  0  0  0  0  0  0  0  0  0  0
    7.0380   -5.7241    0.0000 H   0  0  0  0  0  0  0  0  0  0  0  0
    5.4037   -5.5090    0.0000 C   0  0  0  0  0  0  0  0  0  0  0  0
    6.2502   -7.8347    0.0000 H   0  0  0  0  0  0  0  0  0  0  0  0
    4.6252   -7.5482    0.0000 H   0  0  0  0  0  0  0  0  0  0  0  0
    5.9018   -4.1765    0.0000 H   0  0  0  0  0  0  0  0  0  0  0  0
    4.4070   -4.3212    0.0000 H   0  0  0  0  0  0  0  0  0  0  0  0
    3.6767   -3.1125    0.0000 H   0  0  0  0  0  0  0  0  0  0  0  0
    3.3484   -2.7590    0.0000 H   0  0  0  0  0  0  0  0  0  0  0  0
    2.6078   -2.7590    0.0000 H   0  0  0  0  0  0  0  0  0  0  0  0
    1.9617   -2.7817    0.0000 H   0  0  0  0  0  0  0  0  0  0  0  0
    0.8347   -3.0837    0.0000 H   0  0  0  0  0  0  0  0  0  0  0  0
    1.1367   -4.2107    0.0000 H   0  0  0  0  0  0  0  0  0  0  0  0
  1  2  1  0  0  0  0
  2  3  1  0  0  0  0
  3  4  1  0  0  0  0
  3  5  1  0  0  0  0
  3  6  1  0  0  0  0
  2  7  1  0  0  0  0
  7  8  1  0  0  0  0
  8  9  2  0  0  0  0
  8 10  1  0  0  0  0
 10 11  1  0  0  0  0
 11 12  1  0  0  0  0
 12 13  1  0  0  0  0
 13 14  2  0  0  0  0
 13 15  1  0  0  0  0
 15 16  1  0  0  0  0
 16 17  2  0  0  0  0
 17 18  1  0  0  0  0
 17 19  1  0  0  0  0
 19 20  2  0  0  0  0
 20 21  1  0  0  0  0
 20 22  1  0  0  0  0
 22 23  2  0  0  0  0
 23 24  1  0  0  0  0
 24 25  2  0  0  0  0
 25 26  1  0  0  0  0
 26 27  1  0  0  0  0
 26 28  2  0  0  0  0
 16 28  1  0  0  0  0
 22 28  1  0  0  0  0
 25 29  1  0  0  0  0
 24 30  1  0  0  0  0
 23 31  1  0  0  0  0
 15 32  1  0  0  0  0
 12 33  1  0  0  0  0
 33 34  1  0  0  0  0
 33 35  1  0  0  0  0
 33 36  1  0  0  0  0
 36 37  1  0  0  0  0
 36 38  1  0  0  0  0
 36 39  1  0  0  0  0
 39 40  1  0  0  0  0
 40 41  2  0  0  0  0
 41 42  1  0  0  0  0
 42 43  2  0  0  0  0
 43 44  1  0  0  0  0
 43 45  1  0  0  0  0
 45 46  1  0  0  0  0
 45 47  2  0  0  0  0
 12 47  1  0  0  0  0
 40 47  1  0  0  0  0
 42 48  1  0  0  0  0
 41 49  1  0  0  0  0
 11 50  1  0  0  0  0
 11 51  1  0  0  0  0
 10 52  1  0  0  0  0
  7 53  1  0  0  0  0
  7 54  1  0  0  0  0
  1 55  1  0  0  0  0
  1 56  1  0  0  0  0
  1 57  1  0  0  0  0
M  END
> <Potency>
5.004723825266

> <pIC50>
5.300619883114193

> <Outcome>
Active

> <is_active>
1

$$$$

  Mrv1921 08232120312D          

 60 62  0  0  0  0            999 V2000
    1.5077   -3.6573    0.0000 C   0  0  0  0  0  0  0  0  0  0  0  0
    2.3178   -3.5014    0.0000 S   0  0  0  0  0  0  0  0  0  0  0  0
    2.8579   -4.1250    0.0000 C   0  0  0  0  0  0  0  0  0  0  0  0
    3.6680   -3.9691    0.0000 C   0  0  0  0  0  0  0  0  0  0  0  0
    4.2081   -4.5927    0.0000 N   0  0  0  0  0  0  0  0  0  0  0  0
    5.0182   -4.4368    0.0000 C   0  0  0  0  0  0  0  0  0  0  0  0
    5.2883   -3.6573    0.0000 O   0  0  0  0  0  0  0  0  0  0  0  0
    5.5583   -5.0605    0.0000 C   0  0  0  0  0  0  0  0  0  0  0  0
    5.2883   -5.8400    0.0000 C   0  0  0  0  0  0  0  0  0  0  0  0
    5.8284   -6.4637    0.0000 C   0  0  0  0  0  0  0  0  0  0  0  0
    6.0984   -5.6841    0.0000 H   0  0  0  0  0  0  0  0  0  0  0  0
    5.5583   -7.2432    0.0000 C   0  0  0  0  0  0  0  0  0  0  0  0
    6.0984   -7.8668    0.0000 H   0  0  0  0  0  0  0  0  0  0  0  0
    4.7482   -7.3991    0.0000 C   0  0  0  0  0  0  0  0  0  0  0  0
    4.4782   -8.1787    0.0000 H   0  0  0  0  0  0  0  0  0  0  0  0
    4.2081   -6.7755    0.0000 N   0  0  0  0  0  0  0  0  0  0  0  0
    4.4782   -5.9959    0.0000 C   0  0  0  0  0  0  0  0  0  0  0  0
    3.6680   -6.1518    0.0000 H   0  0  0  0  0  0  0  0  0  0  0  0
    6.3685   -4.9046    0.0000 N   0  0  0  0  0  0  0  0  0  0  0  0
    6.6385   -4.1250    0.0000 C   0  0  0  0  0  0  0  0  0  0  0  0
    6.0984   -3.5014    0.0000 O   0  0  0  0  0  0  0  0  0  0  0  0
    7.4486   -3.9691    0.0000 C   0  0  0  0  0  0  0  0  0  0  0  0
    7.7987   -3.2220    0.0000 C   0  0  0  0  0  0  0  0  0  0  0  0
    7.4001   -2.4997    0.0000 H   0  0  0  0  0  0  0  0  0  0  0  0
    8.6174   -3.3241    0.0000 O   0  0  0  0  0  0  0  0  0  0  0  0
    8.7733   -4.1342    0.0000 C   0  0  0  0  0  0  0  0  0  0  0  0
    9.5203   -4.4843    0.0000 H   0  0  0  0  0  0  0  0  0  0  0  0
    8.0510   -4.5329    0.0000 N   0  0  0  0  0  0  0  0  0  0  0  0
    6.9086   -5.5282    0.0000 C   0  0  0  0  0  0  0  0  0  0  0  0
    7.7187   -5.3723    0.0000 C   0  0  0  0  0  0  0  0  0  0  0  0
    7.1923   -4.7371    0.0000 H   0  0  0  0  0  0  0  0  0  0  0  0
    8.2588   -5.9959    0.0000 C   0  0  0  0  0  0  0  0  0  0  0  0
    9.0689   -5.8400    0.0000 H   0  0  0  0  0  0  0  0  0  0  0  0
    7.9887   -6.7755    0.0000 C   0  0  0  0  0  0  0  0  0  0  0  0
    8.5288   -7.3991    0.0000 C   0  0  0  0  0  0  0  0  0  0  0  0
    9.0689   -8.0228    0.0000 C   0  0  0  0  0  0  0  0  0  0  0  0
    8.4453   -8.5628    0.0000 H   0  0  0  0  0  0  0  0  0  0  0  0
    9.6090   -8.6464    0.0000 H   0  0  0  0  0  0  0  0  0  0  0  0
    9.6926   -7.4827    0.0000 H   0  0  0  0  0  0  0  0  0  0  0  0
    7.9052   -7.9392    0.0000 C   0  0  0  0  0  0  0  0  0  0  0  0
    7.6449   -7.1564    0.0000 H   0  0  0  0  0  0  0  0  0  0  0  0
    7.0823   -7.8801    0.0000 H   0  0  0  0  0  0  0  0  0  0  0  0
    7.5357   -8.6768    0.0000 H   0  0  0  0  0  0  0  0  0  0  0  0
    9.1525   -6.8590    0.0000 C   0  0  0  0  0  0  0  0  0  0  0  0
    9.9353   -6.5987    0.0000 H   0  0  0  0  0  0  0  0  0  0  0  0
    9.2115   -6.0361    0.0000 H   0  0  0  0  0  0  0  0  0  0  0  0
    8.4148   -6.4895    0.0000 H   0  0  0  0  0  0  0  0  0  0  0  0
    7.1786   -6.9314    0.0000 C   0  0  0  0  0  0  0  0  0  0  0  0
    6.3920   -7.1801    0.0000 H   0  0  0  0  0  0  0  0  0  0  0  0
    6.6385   -6.3077    0.0000 C   0  0  0  0  0  0  0  0  0  0  0  0
    7.4486   -6.1518    0.0000 H   0  0  0  0  0  0  0  0  0  0  0  0
    4.7482   -5.2164    0.0000 H   0  0  0  0  0  0  0  0  0  0  0  0
    3.9381   -5.3723    0.0000 H   0  0  0  0  0  0  0  0  0  0  0  0
    4.2592   -3.3937    0.0000 H   0  0  0  0  0  0  0  0  0  0  0  0
    3.5595   -3.1513    0.0000 H   0  0  0  0  0  0  0  0  0  0  0  0
    2.2667   -4.7004    0.0000 H   0  0  0  0  0  0  0  0  0  0  0  0
    2.9664   -4.9428    0.0000 H   0  0  0  0  0  0  0  0  0  0  0  0
    1.3518   -2.8471    0.0000 H   0  0  0  0  0  0  0  0  0  0  0  0
    0.6975   -3.8132    0.0000 H   0  0  0  0  0  0  0  0  0  0  0  0
    1.6636   -4.4674    0.0000 H   0  0  0  0  0  0  0  0  0  0  0  0
  1  2  1  0  0  0  0
  2  3  1  0  0  0  0
  3  4  1  0  0  0  0
  4  5  1  0  0  0  0
  5  6  1  0  0  0  0
  6  7  2  0  0  0  0
  6  8  1  0  0  0  0
  8  9  1  0  0  0  0
  9 10  2  0  0  0  0
 10 11  1  0  0  0  0
 10 12  1  0  0  0  0
 12 13  1  0  0  0  0
 12 14  2  0  0  0  0
 14 15  1  0  0  0  0
 14 16  1  0  0  0  0
 16 17  2  0  0  0  0
  9 17  1  0  0  0  0
 17 18  1  0  0  0  0
  8 19  1  0  0  0  0
 19 20  1  0  0  0  0
 20 21  2  0  0  0  0
 20 22  1  0  0  0  0
 22 23  2  0  0  0  0
 23 24  1  0  0  0  0
 23 25  1  0  0  0  0
 25 26  1  0  0  0  0
 26 27  1  0  0  0  0
 26 28  2  0  0  0  0
 22 28  1  0  0  0  0
 19 29  1  0  0  0  0
 29 30  2  0  0  0  0
 30 31  1  0  0  0  0
 30 32  1  0  0  0  0
 32 33  1  0  0  0  0
 32 34  2  0  0  0  0
 34 35  1  0  0  0  0
 35 36  1  0  0  0  0
 36 37  1  0  0  0  0
 36 38  1  0  0  0  0
 36 39  1  0  0  0  0
 35 40  1  0  0  0  0
 40 41  1  0  0  0  0
 40 42  1  0  0  0  0
 40 43  1  0  0  0  0
 35 44  1  0  0  0  0
 44 45  1  0  0  0  0
 44 46  1  0  0  0  0
 44 47  1  0  0  0  0
 34 48  1  0  0  0  0
 48 49  1  0  0  0  0
 48 50  2  0  0  0  0
 29 50  1  0  0  0  0
 50 51  1  0  0  0  0
  8 52  1  0  0  0  0
  5 53  1  0  0  0  0
  4 54  1  0  0  0  0
  4 55  1  0  0  0  0
  3 56  1  0  0  0  0
  3 57  1  0  0  0  0
  1 58  1  0  0  0  0
  1 59  1  0  0  0  0
  1 60  1  0  0  0  0
M  END
> <Potency>
2.44714263574268

> <pIC50>
5.611340716340641

> <Outcome>
Active

> <is_active>
1

$$$$

  Mrv1921 08232120312D          

 64 66  0  0  0  0            999 V2000
    5.5753   -2.4848    0.0000 C   0  0  0  0  0  0  0  0  0  0  0  0
    4.7651   -2.6407    0.0000 O   0  0  0  0  0  0  0  0  0  0  0  0
    4.2251   -2.0171    0.0000 C   0  0  0  0  0  0  0  0  0  0  0  0
    3.4149   -2.1730    0.0000 C   0  0  0  0  0  0  0  0  0  0  0  0
    2.8748   -1.5493    0.0000 N   0  0  0  0  0  0  0  0  0  0  0  0
    2.0647   -1.7052    0.0000 C   0  0  0  0  0  0  0  0  0  0  0  0
    1.7946   -2.4848    0.0000 O   0  0  0  0  0  0  0  0  0  0  0  0
    1.5246   -1.0816    0.0000 C   0  0  0  0  0  0  0  0  0  0  0  0
    1.7946   -0.3020    0.0000 C   0  0  0  0  0  0  0  0  0  0  0  0
    1.2546    0.3216    0.0000 C   0  0  0  0  0  0  0  0  0  0  0  0
    0.9845   -0.4579    0.0000 H   0  0  0  0  0  0  0  0  0  0  0  0
    1.5246    1.1012    0.0000 C   0  0  0  0  0  0  0  0  0  0  0  0
    0.9845    1.7248    0.0000 H   0  0  0  0  0  0  0  0  0  0  0  0
    2.3347    1.2571    0.0000 C   0  0  0  0  0  0  0  0  0  0  0  0
    2.6048    2.0366    0.0000 H   0  0  0  0  0  0  0  0  0  0  0  0
    2.8748    0.6334    0.0000 N   0  0  0  0  0  0  0  0  0  0  0  0
    2.6048   -0.1461    0.0000 C   0  0  0  0  0  0  0  0  0  0  0  0
    3.4149    0.0098    0.0000 H   0  0  0  0  0  0  0  0  0  0  0  0
    0.7145   -1.2375    0.0000 N   0  0  0  0  0  0  0  0  0  0  0  0
    0.4444   -2.0171    0.0000 C   0  0  0  0  0  0  0  0  0  0  0  0
    0.9845   -2.6407    0.0000 O   0  0  0  0  0  0  0  0  0  0  0  0
   -0.3657   -2.1730    0.0000 C   0  0  0  0  0  0  0  0  0  0  0  0
   -0.9680   -1.6092    0.0000 C   0  0  0  0  0  0  0  0  0  0  0  0
   -1.5873   -1.0641    0.0000 H   0  0  0  0  0  0  0  0  0  0  0  0
   -1.6903   -2.0078    0.0000 O   0  0  0  0  0  0  0  0  0  0  0  0
   -1.5344   -2.8180    0.0000 C   0  0  0  0  0  0  0  0  0  0  0  0
   -2.0982   -3.4203    0.0000 H   0  0  0  0  0  0  0  0  0  0  0  0
   -0.7158   -2.9200    0.0000 N   0  0  0  0  0  0  0  0  0  0  0  0
    0.1744   -0.6139    0.0000 C   0  0  0  0  0  0  0  0  0  0  0  0
   -0.6358   -0.7698    0.0000 C   0  0  0  0  0  0  0  0  0  0  0  0
   -0.1093   -1.4050    0.0000 H   0  0  0  0  0  0  0  0  0  0  0  0
   -1.1758   -0.1461    0.0000 C   0  0  0  0  0  0  0  0  0  0  0  0
   -1.9860   -0.3020    0.0000 H   0  0  0  0  0  0  0  0  0  0  0  0
   -0.9058    0.6334    0.0000 C   0  0  0  0  0  0  0  0  0  0  0  0
   -1.4459    1.2571    0.0000 C   0  0  0  0  0  0  0  0  0  0  0  0
   -1.9860    1.8807    0.0000 C   0  0  0  0  0  0  0  0  0  0  0  0
   -1.3623    2.4208    0.0000 H   0  0  0  0  0  0  0  0  0  0  0  0
   -2.5261    2.5043    0.0000 H   0  0  0  0  0  0  0  0  0  0  0  0
   -2.6096    1.3406    0.0000 H   0  0  0  0  0  0  0  0  0  0  0  0
   -0.8222    1.7972    0.0000 C   0  0  0  0  0  0  0  0  0  0  0  0
   -0.5619    1.0143    0.0000 H   0  0  0  0  0  0  0  0  0  0  0  0
    0.0006    1.7381    0.0000 H   0  0  0  0  0  0  0  0  0  0  0  0
   -0.4528    2.5348    0.0000 H   0  0  0  0  0  0  0  0  0  0  0  0
   -2.0695    0.7170    0.0000 C   0  0  0  0  0  0  0  0  0  0  0  0
   -2.8524    0.4567    0.0000 H   0  0  0  0  0  0  0  0  0  0  0  0
   -2.1286   -0.1059    0.0000 H   0  0  0  0  0  0  0  0  0  0  0  0
   -1.3319    0.3475    0.0000 H   0  0  0  0  0  0  0  0  0  0  0  0
   -0.0957    0.7893    0.0000 C   0  0  0  0  0  0  0  0  0  0  0  0
    0.6909    1.0381    0.0000 H   0  0  0  0  0  0  0  0  0  0  0  0
    0.4444    0.1657    0.0000 C   0  0  0  0  0  0  0  0  0  0  0  0
   -0.3657    0.0098    0.0000 H   0  0  0  0  0  0  0  0  0  0  0  0
    2.3347   -0.9257    0.0000 H   0  0  0  0  0  0  0  0  0  0  0  0
    3.1449   -0.7698    0.0000 H   0  0  0  0  0  0  0  0  0  0  0  0
    2.6442   -2.4672    0.0000 H   0  0  0  0  0  0  0  0  0  0  0  0
    3.0136   -2.8938    0.0000 H   0  0  0  0  0  0  0  0  0  0  0  0
    4.4951   -1.2375    0.0000 O   0  0  0  0  0  0  0  0  0  0  0  0
    5.3052   -1.0816    0.0000 C   0  0  0  0  0  0  0  0  0  0  0  0
    6.1134   -1.2476    0.0000 H   0  0  0  0  0  0  0  0  0  0  0  0
    5.7678   -0.3985    0.0000 H   0  0  0  0  0  0  0  0  0  0  0  0
    4.8512   -0.3928    0.0000 H   0  0  0  0  0  0  0  0  0  0  0  0
    3.9550   -2.7966    0.0000 H   0  0  0  0  0  0  0  0  0  0  0  0
    5.7312   -3.2949    0.0000 H   0  0  0  0  0  0  0  0  0  0  0  0
    6.3854   -2.3289    0.0000 H   0  0  0  0  0  0  0  0  0  0  0  0
    5.4194   -1.6746    0.0000 H   0  0  0  0  0  0  0  0  0  0  0  0
  1  2  1  0  0  0  0
  2  3  1  0  0  0  0
  3  4  1  0  0  0  0
  4  5  1  0  0  0  0
  5  6  1  0  0  0  0
  6  7  2  0  0  0  0
  6  8  1  0  0  0  0
  8  9  1  0  0  0  0
  9 10  2  0  0  0  0
 10 11  1  0  0  0  0
 10 12  1  0  0  0  0
 12 13  1  0  0  0  0
 12 14  2  0  0  0  0
 14 15  1  0  0  0  0
 14 16  1  0  0  0  0
 16 17  2  0  0  0  0
  9 17  1  0  0  0  0
 17 18  1  0  0  0  0
  8 19  1  0  0  0  0
 19 20  1  0  0  0  0
 20 21  2  0  0  0  0
 20 22  1  0  0  0  0
 22 23  2  0  0  0  0
 23 24  1  0  0  0  0
 23 25  1  0  0  0  0
 25 26  1  0  0  0  0
 26 27  1  0  0  0  0
 26 28  2  0  0  0  0
 22 28  1  0  0  0  0
 19 29  1  0  0  0  0
 29 30  2  0  0  0  0
 30 31  1  0  0  0  0
 30 32  1  0  0  0  0
 32 33  1  0  0  0  0
 32 34  2  0  0  0  0
 34 35  1  0  0  0  0
 35 36  1  0  0  0  0
 36 37  1  0  0  0  0
 36 38  1  0  0  0  0
 36 39  1  0  0  0  0
 35 40  1  0  0  0  0
 40 41  1  0  0  0  0
 40 42  1  0  0  0  0
 40 43  1  0  0  0  0
 35 44  1  0  0  0  0
 44 45  1  0  0  0  0
 44 46  1  0  0  0  0
 44 47  1  0  0  0  0
 34 48  1  0  0  0  0
 48 49  1  0  0  0  0
 48 50  2  0  0  0  0
 29 50  1  0  0  0  0
 50 51  1  0  0  0  0
  8 52  1  0  0  0  0
  5 53  1  0  0  0  0
  4 54  1  0  0  0  0
  4 55  1  0  0  0  0
  3 56  1  0  0  0  0
 56 57  1  0  0  0  0
 57 58  1  0  0  0  0
 57 59  1  0  0  0  0
 57 60  1  0  0  0  0
  3 61  1  0  0  0  0
  1 62  1  0  0  0  0
  1 63  1  0  0  0  0
  1 64  1  0  0  0  0
M  END
> <Potency>
7.90861988684175

> <pIC50>
5.101899297516702

> <Outcome>
Active

> <is_active>
1

$$$$

  Mrv1921 08232120312D          

 51 54  0  0  0  0            999 V2000
    5.7158   -0.8250    0.0000 O   0  0  0  0  0  0  0  0  0  0  0  0
    5.7158    0.0000    0.0000 C   0  0  0  0  0  0  0  0  0  0  0  0
    5.0013    0.4125    0.0000 C   0  0  0  0  0  0  0  0  0  0  0  0
    4.2868    0.0000    0.0000 N   0  0  0  0  0  0  0  0  0  0  0  0
    4.2868   -0.8250    0.0000 C   0  0  0  0  0  0  0  0  0  0  0  0
    5.0013   -1.2375    0.0000 H   0  0  0  0  0  0  0  0  0  0  0  0
    3.5724   -1.2375    0.0000 C   0  0  0  0  0  0  0  0  0  0  0  0
    3.5724   -2.0625    0.0000 Cl  0  0  0  0  0  0  0  0  0  0  0  0
    2.8579   -0.8250    0.0000 C   0  0  0  0  0  0  0  0  0  0  0  0
    2.1434   -1.2375    0.0000 O   0  0  0  0  0  0  0  0  0  0  0  0
    2.8579    0.0000    0.0000 N   0  0  0  0  0  0  0  0  0  0  0  0
    2.1434    0.4125    0.0000 H   0  0  0  0  0  0  0  0  0  0  0  0
    3.5724    0.4125    0.0000 C   0  0  0  0  0  0  0  0  0  0  0  0
    3.5724    1.2375    0.0000 O   0  0  0  0  0  0  0  0  0  0  0  0
    5.3716    1.1497    0.0000 H   0  0  0  0  0  0  0  0  0  0  0  0
    4.6310    1.1497    0.0000 H   0  0  0  0  0  0  0  0  0  0  0  0
    6.4302    0.4125    0.0000 N   0  0  0  0  0  0  0  0  0  0  0  0
    7.1447    0.0000    0.0000 C   0  0  0  0  0  0  0  0  0  0  0  0
    7.8592    0.4125    0.0000 C   0  0  0  0  0  0  0  0  0  0  0  0
    7.8592    1.2375    0.0000 O   0  0  0  0  0  0  0  0  0  0  0  0
    8.5737    0.0000    0.0000 N   0  0  0  0  0  0  0  0  0  0  0  0
    9.2881    0.4125    0.0000 C   0  0  0  0  0  0  0  0  0  0  0  0
    9.2881    1.2375    0.0000 C   0  0  0  0  0  0  0  0  0  0  0  0
    8.5737    1.6500    0.0000 H   0  0  0  0  0  0  0  0  0  0  0  0
   10.0026    1.6500    0.0000 N   0  0  0  0  0  0  0  0  0  0  0  0
   10.7171    1.2375    0.0000 C   0  0  0  0  0  0  0  0  0  0  0  0
   11.4315    1.6500    0.0000 H   0  0  0  0  0  0  0  0  0  0  0  0
   10.7171    0.4125    0.0000 C   0  0  0  0  0  0  0  0  0  0  0  0
   11.4315    0.0000    0.0000 C   0  0  0  0  0  0  0  0  0  0  0  0
   11.4315   -0.8250    0.0000 C   0  0  0  0  0  0  0  0  0  0  0  0
   10.7171   -1.2375    0.0000 C   0  0  0  0  0  0  0  0  0  0  0  0
   10.0026   -0.8250    0.0000 C   0  0  0  0  0  0  0  0  0  0  0  0
    9.2881   -1.2375    0.0000 H   0  0  0  0  0  0  0  0  0  0  0  0
   10.0026    0.0000    0.0000 C   0  0  0  0  0  0  0  0  0  0  0  0
   10.7171   -2.0625    0.0000 H   0  0  0  0  0  0  0  0  0  0  0  0
   12.1460   -1.2375    0.0000 H   0  0  0  0  0  0  0  0  0  0  0  0
   12.1460    0.4125    0.0000 H   0  0  0  0  0  0  0  0  0  0  0  0
    8.5737   -0.8250    0.0000 H   0  0  0  0  0  0  0  0  0  0  0  0
    7.1447   -0.8250    0.0000 C   0  0  0  0  0  0  0  0  0  0  0  0
    7.8592   -1.2375    0.0000 C   0  0  0  0  0  0  0  0  0  0  0  0
    7.8592   -0.4125    0.0000 H   0  0  0  0  0  0  0  0  0  0  0  0
    7.8592   -2.0625    0.0000 C   0  0  0  0  0  0  0  0  0  0  0  0
    8.5737   -2.4750    0.0000 H   0  0  0  0  0  0  0  0  0  0  0  0
    7.1447   -2.4750    0.0000 C   0  0  0  0  0  0  0  0  0  0  0  0
    7.1447   -3.3000    0.0000 H   0  0  0  0  0  0  0  0  0  0  0  0
    6.4302   -2.0625    0.0000 C   0  0  0  0  0  0  0  0  0  0  0  0
    5.7158   -2.4750    0.0000 Cl  0  0  0  0  0  0  0  0  0  0  0  0
    6.4302   -1.2375    0.0000 C   0  0  0  0  0  0  0  0  0  0  0  0
    6.4302   -0.4125    0.0000 H   0  0  0  0  0  0  0  0  0  0  0  0
    7.1447    0.8250    0.0000 H   0  0  0  0  0  0  0  0  0  0  0  0
    6.4302    1.2375    0.0000 H   0  0  0  0  0  0  0  0  0  0  0  0
  1  2  2  0  0  0  0
  2  3  1  0  0  0  0
  3  4  1  0  0  0  0
  4  5  4  0  0  0  0
  5  6  1  0  0  0  0
  5  7  4  0  0  0  0
  7  8  1  0  0  0  0
  7  9  4  0  0  0  0
  9 10  2  0  0  0  0
  9 11  4  0  0  0  0
 11 12  1  0  0  0  0
 11 13  4  0  0  0  0
  4 13  4  0  0  0  0
 13 14  2  0  0  0  0
  3 15  1  0  0  0  0
  3 16  1  0  0  0  0
  2 17  1  0  0  0  0
 17 18  1  0  0  0  0
 18 19  1  0  0  0  0
 19 20  2  0  0  0  0
 19 21  1  0  0  0  0
 21 22  1  0  0  0  0
 22 23  2  0  0  0  0
 23 24  1  0  0  0  0
 23 25  1  0  0  0  0
 25 26  2  0  0  0  0
 26 27  1  0  0  0  0
 26 28  1  0  0  0  0
 28 29  2  0  0  0  0
 29 30  1  0  0  0  0
 30 31  2  0  0  0  0
 31 32  1  0  0  0  0
 32 33  1  0  0  0  0
 32 34  2  0  0  0  0
 22 34  1  0  0  0  0
 28 34  1  0  0  0  0
 31 35  1  0  0  0  0
 30 36  1  0  0  0  0
 29 37  1  0  0  0  0
 21 38  1  0  0  0  0
 18 39  1  0  0  0  0
 39 40  2  0  0  0  0
 40 41  1  0  0  0  0
 40 42  1  0  0  0  0
 42 43  1  0  0  0  0
 42 44  2  0  0  0  0
 44 45  1  0  0  0  0
 44 46  1  0  0  0  0
 46 47  1  0  0  0  0
 46 48  2  0  0  0  0
 39 48  1  0  0  0  0
 48 49  1  0  0  0  0
 18 50  1  0  0  0  0
 17 51  1  0  0  0  0
M  END
> <Potency>
9.33416719234576

> <pIC50>
5.029924424356918

> <Outcome>
Active

> <is_active>
1

$$$$

  Mrv1921 08232120312D          

 64 68  0  0  0  0            999 V2000
    4.3209   -3.0075    0.0000 C   0  0  0  0  0  0  0  0  0  0  0  0
    3.5084   -2.8642    0.0000 C   0  0  0  0  0  0  0  0  0  0  0  0
    2.9781   -3.4962    0.0000 C   0  0  0  0  0  0  0  0  0  0  0  0
    2.8823   -4.3156    0.0000 H   0  0  0  0  0  0  0  0  0  0  0  0
    3.5782   -4.0624    0.0000 H   0  0  0  0  0  0  0  0  0  0  0  0
    2.1656   -3.3529    0.0000 N   0  0  0  0  0  0  0  0  0  0  0  0
    1.6353   -3.9849    0.0000 C   0  0  0  0  0  0  0  0  0  0  0  0
    1.0033   -3.4546    0.0000 H   0  0  0  0  0  0  0  0  0  0  0  0
    1.1050   -4.6169    0.0000 H   0  0  0  0  0  0  0  0  0  0  0  0
    2.2673   -4.5152    0.0000 H   0  0  0  0  0  0  0  0  0  0  0  0
    1.8835   -2.5777    0.0000 C   0  0  0  0  0  0  0  0  0  0  0  0
    1.2217   -2.0850    0.0000 H   0  0  0  0  0  0  0  0  0  0  0  0
    1.0931   -2.8143    0.0000 H   0  0  0  0  0  0  0  0  0  0  0  0
    2.4138   -1.9457    0.0000 C   0  0  0  0  0  0  0  0  0  0  0  0
    2.5095   -1.1263    0.0000 H   0  0  0  0  0  0  0  0  0  0  0  0
    1.8137   -1.3796    0.0000 H   0  0  0  0  0  0  0  0  0  0  0  0
    3.2262   -2.0890    0.0000 N   0  0  0  0  0  0  0  0  0  0  0  0
    3.7565   -1.4570    0.0000 C   0  0  0  0  0  0  0  0  0  0  0  0
    3.4744   -0.6817    0.0000 O   0  0  0  0  0  0  0  0  0  0  0  0
    4.5690   -1.6002    0.0000 C   0  0  0  0  0  0  0  0  0  0  0  0
    5.0993   -0.9683    0.0000 C   0  0  0  0  0  0  0  0  0  0  0  0
    5.6296   -1.6002    0.0000 C   0  0  0  0  0  0  0  0  0  0  0  0
    6.4421   -1.4570    0.0000 O   0  0  0  0  0  0  0  0  0  0  0  0
    5.3474   -2.3755    0.0000 N   0  0  0  0  0  0  0  0  0  0  0  0
    5.8777   -3.0075    0.0000 C   0  0  0  0  0  0  0  0  0  0  0  0
    6.6902   -2.8642    0.0000 C   0  0  0  0  0  0  0  0  0  0  0  0
    7.3222   -2.3339    0.0000 H   0  0  0  0  0  0  0  0  0  0  0  0
    7.2205   -3.4962    0.0000 N   0  0  0  0  0  0  0  0  0  0  0  0
    6.9383   -4.2715    0.0000 C   0  0  0  0  0  0  0  0  0  0  0  0
    7.4686   -4.9034    0.0000 H   0  0  0  0  0  0  0  0  0  0  0  0
    6.1259   -4.4147    0.0000 C   0  0  0  0  0  0  0  0  0  0  0  0
    5.8437   -5.1900    0.0000 C   0  0  0  0  0  0  0  0  0  0  0  0
    5.0312   -5.3332    0.0000 C   0  0  0  0  0  0  0  0  0  0  0  0
    4.5009   -4.7012    0.0000 C   0  0  0  0  0  0  0  0  0  0  0  0
    4.7831   -3.9260    0.0000 C   0  0  0  0  0  0  0  0  0  0  0  0
    5.3134   -4.5580    0.0000 H   0  0  0  0  0  0  0  0  0  0  0  0
    5.5956   -3.7827    0.0000 C   0  0  0  0  0  0  0  0  0  0  0  0
    3.7870   -5.1146    0.0000 H   0  0  0  0  0  0  0  0  0  0  0  0
    4.7491   -6.1085    0.0000 H   0  0  0  0  0  0  0  0  0  0  0  0
    6.3740   -5.8219    0.0000 H   0  0  0  0  0  0  0  0  0  0  0  0
    6.1599   -2.2322    0.0000 H   0  0  0  0  0  0  0  0  0  0  0  0
    4.3848   -0.5558    0.0000 C   0  0  0  0  0  0  0  0  0  0  0  0
    5.0993   -0.1433    0.0000 H   0  0  0  0  0  0  0  0  0  0  0  0
    3.7628   -0.0138    0.0000 H   0  0  0  0  0  0  0  0  0  0  0  0
    4.3848    0.2692    0.0000 C   0  0  0  0  0  0  0  0  0  0  0  0
    4.4114    1.0938    0.0000 H   0  0  0  0  0  0  0  0  0  0  0  0
    3.6984    0.7268    0.0000 H   0  0  0  0  0  0  0  0  0  0  0  0
    5.0993    0.6817    0.0000 O   0  0  0  0  0  0  0  0  0  0  0  0
    5.8138    0.2692    0.0000 C   0  0  0  0  0  0  0  0  0  0  0  0
    6.5282    0.6817    0.0000 C   0  0  0  0  0  0  0  0  0  0  0  0
    7.2427    0.2692    0.0000 C   0  0  0  0  0  0  0  0  0  0  0  0
    7.2427   -0.5558    0.0000 C   0  0  0  0  0  0  0  0  0  0  0  0
    7.9572   -0.9683    0.0000 Cl  0  0  0  0  0  0  0  0  0  0  0  0
    6.5282   -0.9683    0.0000 C   0  0  0  0  0  0  0  0  0  0  0  0
    7.2040   -1.4415    0.0000 H   0  0  0  0  0  0  0  0  0  0  0  0
    5.8138   -0.5558    0.0000 C   0  0  0  0  0  0  0  0  0  0  0  0
    7.9572    0.6817    0.0000 H   0  0  0  0  0  0  0  0  0  0  0  0
    6.5282    1.5067    0.0000 H   0  0  0  0  0  0  0  0  0  0  0  0
    5.3167   -1.9489    0.0000 H   0  0  0  0  0  0  0  0  0  0  0  0
    4.2868   -0.8250    0.0000 H   0  0  0  0  0  0  0  0  0  0  0  0
    4.0387   -2.2322    0.0000 H   0  0  0  0  0  0  0  0  0  0  0  0
    4.1776   -3.8199    0.0000 H   0  0  0  0  0  0  0  0  0  0  0  0
    5.1333   -3.1507    0.0000 H   0  0  0  0  0  0  0  0  0  0  0  0
    4.4641   -2.1950    0.0000 H   0  0  0  0  0  0  0  0  0  0  0  0
  1  2  1  0  0  0  0
  2  3  1  0  0  0  0
  3  4  1  0  0  0  0
  3  5  1  0  0  0  0
  3  6  1  0  0  0  0
  6  7  1  0  0  0  0
  7  8  1  0  0  0  0
  7  9  1  0  0  0  0
  7 10  1  0  0  0  0
  6 11  1  0  0  0  0
 11 12  1  0  0  0  0
 11 13  1  0  0  0  0
 11 14  1  0  0  0  0
 14 15  1  0  0  0  0
 14 16  1  0  0  0  0
 14 17  1  0  0  0  0
  2 17  1  0  0  0  0
 17 18  1  0  0  0  0
 18 19  2  0  0  0  0
 18 20  1  0  0  0  0
 20 21  1  0  0  0  0
 21 22  1  0  0  0  0
 22 23  2  0  0  0  0
 22 24  1  0  0  0  0
 24 25  1  0  0  0  0
 25 26  2  0  0  0  0
 26 27  1  0  0  0  0
 26 28  1  0  0  0  0
 28 29  2  0  0  0  0
 29 30  1  0  0  0  0
 29 31  1  0  0  0  0
 31 32  2  0  0  0  0
 32 33  1  0  0  0  0
 33 34  2  0  0  0  0
 34 35  1  0  0  0  0
 35 36  1  0  0  0  0
 35 37  2  0  0  0  0
 25 37  1  0  0  0  0
 31 37  1  0  0  0  0
 34 38  1  0  0  0  0
 33 39  1  0  0  0  0
 32 40  1  0  0  0  0
 24 41  1  0  0  0  0
 21 42  1  0  0  0  0
 42 43  1  0  0  0  0
 42 44  1  0  0  0  0
 42 45  1  0  0  0  0
 45 46  1  0  0  0  0
 45 47  1  0  0  0  0
 45 48  1  0  0  0  0
 48 49  1  0  0  0  0
 49 50  2  0  0  0  0
 50 51  1  0  0  0  0
 51 52  2  0  0  0  0
 52 53  1  0  0  0  0
 52 54  1  0  0  0  0
 54 55  1  0  0  0  0
 54 56  2  0  0  0  0
 21 56  1  0  0  0  0
 49 56  1  0  0  0  0
 51 57  1  0  0  0  0
 50 58  1  0  0  0  0
 20 59  1  0  0  0  0
 20 60  1  0  0  0  0
  2 61  1  0  0  0  0
  1 62  1  0  0  0  0
  1 63  1  0  0  0  0
  1 64  1  0  0  0  0
M  END
> <Potency>
6.17715614429733

> <pIC50>
5.209211420558108

> <Outcome>
Active

> <is_active>
1

$$$$

  Mrv1921 08232120312D          

 33 35  0  0  0  0            999 V2000
    0.0000   -2.4750    0.0000 O   0  0  0  0  0  0  0  0  0  0  0  0
    0.7145   -2.8875    0.0000 C   0  0  0  0  0  0  0  0  0  0  0  0
    0.7145   -3.7125    0.0000 C   0  0  0  0  0  0  0  0  0  0  0  0
    0.0000   -4.1250    0.0000 C   0  0  0  0  0  0  0  0  0  0  0  0
    0.0000   -4.9500    0.0000 C   0  0  0  0  0  0  0  0  0  0  0  0
    0.7145   -5.3625    0.0000 H   0  0  0  0  0  0  0  0  0  0  0  0
   -0.7145   -5.3625    0.0000 N   0  0  0  0  0  0  0  0  0  0  0  0
   -1.4289   -4.9500    0.0000 C   0  0  0  0  0  0  0  0  0  0  0  0
   -2.1434   -5.3625    0.0000 H   0  0  0  0  0  0  0  0  0  0  0  0
   -1.4289   -4.1250    0.0000 C   0  0  0  0  0  0  0  0  0  0  0  0
   -2.1434   -3.7125    0.0000 Cl  0  0  0  0  0  0  0  0  0  0  0  0
   -0.7145   -3.7125    0.0000 C   0  0  0  0  0  0  0  0  0  0  0  0
   -0.7145   -2.8875    0.0000 H   0  0  0  0  0  0  0  0  0  0  0  0
    1.1678   -4.4018    0.0000 H   0  0  0  0  0  0  0  0  0  0  0  0
    1.5381   -3.7605    0.0000 H   0  0  0  0  0  0  0  0  0  0  0  0
    1.4289   -2.4750    0.0000 N   0  0  0  0  0  0  0  0  0  0  0  0
    1.4289   -1.6500    0.0000 C   0  0  0  0  0  0  0  0  0  0  0  0
    0.7145   -1.2375    0.0000 C   0  0  0  0  0  0  0  0  0  0  0  0
    0.0000   -1.6500    0.0000 H   0  0  0  0  0  0  0  0  0  0  0  0
    0.7145   -0.4125    0.0000 N   0  0  0  0  0  0  0  0  0  0  0  0
    1.4289    0.0000    0.0000 C   0  0  0  0  0  0  0  0  0  0  0  0
    1.4289    0.8250    0.0000 H   0  0  0  0  0  0  0  0  0  0  0  0
    2.1434   -0.4125    0.0000 C   0  0  0  0  0  0  0  0  0  0  0  0
    2.8579    0.0000    0.0000 C   0  0  0  0  0  0  0  0  0  0  0  0
    3.5724   -0.4125    0.0000 C   0  0  0  0  0  0  0  0  0  0  0  0
    3.5724   -1.2375    0.0000 C   0  0  0  0  0  0  0  0  0  0  0  0
    2.8579   -1.6500    0.0000 C   0  0  0  0  0  0  0  0  0  0  0  0
    2.8579   -2.4750    0.0000 H   0  0  0  0  0  0  0  0  0  0  0  0
    2.1434   -1.2375    0.0000 C   0  0  0  0  0  0  0  0  0  0  0  0
    4.2868   -1.6500    0.0000 H   0  0  0  0  0  0  0  0  0  0  0  0
    4.2868   -0.0000    0.0000 H   0  0  0  0  0  0  0  0  0  0  0  0
    2.8579    0.8250    0.0000 H   0  0  0  0  0  0  0  0  0  0  0  0
    2.1434   -2.8875    0.0000 H   0  0  0  0  0  0  0  0  0  0  0  0
  1  2  2  0  0  0  0
  2  3  1  0  0  0  0
  3  4  1  0  0  0  0
  4  5  2  0  0  0  0
  5  6  1  0  0  0  0
  5  7  1  0  0  0  0
  7  8  2  0  0  0  0
  8  9  1  0  0  0  0
  8 10  1  0  0  0  0
 10 11  1  0  0  0  0
 10 12  2  0  0  0  0
  4 12  1  0  0  0  0
 12 13  1  0  0  0  0
  3 14  1  0  0  0  0
  3 15  1  0  0  0  0
  2 16  1  0  0  0  0
 16 17  1  0  0  0  0
 17 18  2  0  0  0  0
 18 19  1  0  0  0  0
 18 20  1  0  0  0  0
 20 21  2  0  0  0  0
 21 22  1  0  0  0  0
 21 23  1  0  0  0  0
 23 24  2  0  0  0  0
 24 25  1  0  0  0  0
 25 26  2  0  0  0  0
 26 27  1  0  0  0  0
 27 28  1  0  0  0  0
 27 29  2  0  0  0  0
 17 29  1  0  0  0  0
 23 29  1  0  0  0  0
 26 30  1  0  0  0  0
 25 31  1  0  0  0  0
 24 32  1  0  0  0  0
 16 33  1  0  0  0  0
M  END
> <Potency>
0.998146775467744

> <pIC50>
6.00080559189019

> <Outcome>
Active

> <is_active>
1

$$$$

  Mrv1921 08232120312D          

 48 51  0  0  0  0            999 V2000
    0.7145   -2.8875    0.0000 C   0  0  0  0  0  0  0  0  0  0  0  0
    1.4289   -2.4750    0.0000 O   0  0  0  0  0  0  0  0  0  0  0  0
    1.4289   -1.6500    0.0000 C   0  0  0  0  0  0  0  0  0  0  0  0
    0.7145   -1.2375    0.0000 C   0  0  0  0  0  0  0  0  0  0  0  0
    0.0000   -1.6500    0.0000 H   0  0  0  0  0  0  0  0  0  0  0  0
    0.7145   -0.4125    0.0000 C   0  0  0  0  0  0  0  0  0  0  0  0
    0.0000    0.0000    0.0000 H   0  0  0  0  0  0  0  0  0  0  0  0
    1.4289    0.0000    0.0000 C   0  0  0  0  0  0  0  0  0  0  0  0
    1.4289    0.8250    0.0000 H   0  0  0  0  0  0  0  0  0  0  0  0
    2.1434   -0.4125    0.0000 C   0  0  0  0  0  0  0  0  0  0  0  0
    2.8579    0.0000    0.0000 N   0  0  0  0  0  0  0  0  0  0  0  0
    3.5724   -0.4125    0.0000 C   0  0  0  0  0  0  0  0  0  0  0  0
    4.2868   -0.0000    0.0000 O   0  0  0  0  0  0  0  0  0  0  0  0
    3.5724   -1.2375    0.0000 C   0  0  0  0  0  0  0  0  0  0  0  0
    2.8579   -1.6500    0.0000 C   0  0  0  0  0  0  0  0  0  0  0  0
    2.8579   -2.4750    0.0000 C   0  0  0  0  0  0  0  0  0  0  0  0
    2.1434   -2.8875    0.0000 O   0  0  0  0  0  0  0  0  0  0  0  0
    3.5724   -2.8875    0.0000 N   0  0  0  0  0  0  0  0  0  0  0  0
    4.2868   -2.4750    0.0000 C   0  0  0  0  0  0  0  0  0  0  0  0
    3.5724   -2.0625    0.0000 H   0  0  0  0  0  0  0  0  0  0  0  0
    5.0013   -2.0625    0.0000 H   0  0  0  0  0  0  0  0  0  0  0  0
    5.0013   -2.8875    0.0000 C   0  0  0  0  0  0  0  0  0  0  0  0
    5.7765   -3.1697    0.0000 H   0  0  0  0  0  0  0  0  0  0  0  0
    5.7765   -2.6053    0.0000 H   0  0  0  0  0  0  0  0  0  0  0  0
    5.0013   -3.7125    0.0000 N   0  0  0  0  0  0  0  0  0  0  0  0
    5.7158   -4.1250    0.0000 C   0  0  0  0  0  0  0  0  0  0  0  0
    6.4302   -3.7125    0.0000 C   0  0  0  0  0  0  0  0  0  0  0  0
    6.9017   -3.0355    0.0000 H   0  0  0  0  0  0  0  0  0  0  0  0
    7.1447   -4.1250    0.0000 C   0  0  0  0  0  0  0  0  0  0  0  0
    7.8592   -3.7125    0.0000 H   0  0  0  0  0  0  0  0  0  0  0  0
    7.1447   -4.9500    0.0000 C   0  0  0  0  0  0  0  0  0  0  0  0
    7.8592   -5.3625    0.0000 H   0  0  0  0  0  0  0  0  0  0  0  0
    6.4302   -5.3625    0.0000 C   0  0  0  0  0  0  0  0  0  0  0  0
    6.4302   -6.1875    0.0000 Cl  0  0  0  0  0  0  0  0  0  0  0  0
    5.7158   -4.9500    0.0000 C   0  0  0  0  0  0  0  0  0  0  0  0
    5.0013   -5.3625    0.0000 H   0  0  0  0  0  0  0  0  0  0  0  0
    4.2868   -4.1250    0.0000 C   0  0  0  0  0  0  0  0  0  0  0  0
    3.9166   -4.8622    0.0000 H   0  0  0  0  0  0  0  0  0  0  0  0
    4.6571   -4.8622    0.0000 H   0  0  0  0  0  0  0  0  0  0  0  0
    3.5724   -3.7125    0.0000 C   0  0  0  0  0  0  0  0  0  0  0  0
    2.7488   -3.7605    0.0000 H   0  0  0  0  0  0  0  0  0  0  0  0
    3.1190   -4.4018    0.0000 H   0  0  0  0  0  0  0  0  0  0  0  0
    2.1434   -1.2375    0.0000 C   0  0  0  0  0  0  0  0  0  0  0  0
    4.2868   -1.6500    0.0000 H   0  0  0  0  0  0  0  0  0  0  0  0
    2.8579    0.8250    0.0000 H   0  0  0  0  0  0  0  0  0  0  0  0
    0.3020   -2.1730    0.0000 H   0  0  0  0  0  0  0  0  0  0  0  0
    0.0000   -3.3000    0.0000 H   0  0  0  0  0  0  0  0  0  0  0  0
    1.1270   -3.6020    0.0000 H   0  0  0  0  0  0  0  0  0  0  0  0
  1  2  1  0  0  0  0
  2  3  1  0  0  0  0
  3  4  4  0  0  0  0
  4  5  1  0  0  0  0
  4  6  4  0  0  0  0
  6  7  1  0  0  0  0
  6  8  4  0  0  0  0
  8  9  1  0  0  0  0
  8 10  4  0  0  0  0
 10 11  4  0  0  0  0
 11 12  4  0  0  0  0
 12 13  2  0  0  0  0
 12 14  4  0  0  0  0
 14 15  4  0  0  0  0
 15 16  1  0  0  0  0
 16 17  2  0  0  0  0
 16 18  1  0  0  0  0
 18 19  1  0  0  0  0
 19 20  1  0  0  0  0
 19 21  1  0  0  0  0
 19 22  1  0  0  0  0
 22 23  1  0  0  0  0
 22 24  1  0  0  0  0
 22 25  1  0  0  0  0
 25 26  1  0  0  0  0
 26 27  2  0  0  0  0
 27 28  1  0  0  0  0
 27 29  1  0  0  0  0
 29 30  1  0  0  0  0
 29 31  2  0  0  0  0
 31 32  1  0  0  0  0
 31 33  1  0  0  0  0
 33 34  1  0  0  0  0
 33 35  2  0  0  0  0
 26 35  1  0  0  0  0
 35 36  1  0  0  0  0
 25 37  1  0  0  0  0
 37 38  1  0  0  0  0
 37 39  1  0  0  0  0
 37 40  1  0  0  0  0
 18 40  1  0  0  0  0
 40 41  1  0  0  0  0
 40 42  1  0  0  0  0
 15 43  4  0  0  0  0
  3 43  4  0  0  0  0
 10 43  4  0  0  0  0
 14 44  1  0  0  0  0
 11 45  1  0  0  0  0
  1 46  1  0  0  0  0
  1 47  1  0  0  0  0
  1 48  1  0  0  0  0
M  END
> <Potency>
4.68428775682128

> <pIC50>
5.329356433975202

> <Outcome>
Active

> <is_active>
1

$$$$

  Mrv1921 08232120312D          

 35 37  0  0  0  0            999 V2000
    1.8500    2.0625    0.0000 O   0  0  0  0  0  0  0  0  0  0  0  0
    2.5645    2.4750    0.0000 C   0  0  0  0  0  0  0  0  0  0  0  0
    2.5645    3.3000    0.0000 C   0  0  0  0  0  0  0  0  0  0  0  0
    1.8500    3.7125    0.0000 C   0  0  0  0  0  0  0  0  0  0  0  0
    1.1355    3.3000    0.0000 C   0  0  0  0  0  0  0  0  0  0  0  0
    1.1355    2.4750    0.0000 H   0  0  0  0  0  0  0  0  0  0  0  0
    0.4210    3.7125    0.0000 C   0  0  0  0  0  0  0  0  0  0  0  0
   -0.2934    3.3000    0.0000 H   0  0  0  0  0  0  0  0  0  0  0  0
    0.4210    4.5375    0.0000 C   0  0  0  0  0  0  0  0  0  0  0  0
   -0.2934    4.9500    0.0000 H   0  0  0  0  0  0  0  0  0  0  0  0
    1.1355    4.9500    0.0000 C   0  0  0  0  0  0  0  0  0  0  0  0
    1.1355    5.7750    0.0000 Cl  0  0  0  0  0  0  0  0  0  0  0  0
    1.8500    4.5375    0.0000 C   0  0  0  0  0  0  0  0  0  0  0  0
    2.5645    4.9500    0.0000 H   0  0  0  0  0  0  0  0  0  0  0  0
    3.3881    3.3480    0.0000 H   0  0  0  0  0  0  0  0  0  0  0  0
    3.0178    3.9893    0.0000 H   0  0  0  0  0  0  0  0  0  0  0  0
    3.2789    2.0625    0.0000 N   0  0  0  0  0  0  0  0  0  0  0  0
    3.2789    1.2375    0.0000 C   0  0  0  0  0  0  0  0  0  0  0  0
    3.9934    0.8250    0.0000 C   0  0  0  0  0  0  0  0  0  0  0  0
    4.7079    1.2375    0.0000 H   0  0  0  0  0  0  0  0  0  0  0  0
    3.9934    0.0000    0.0000 N   0  0  0  0  0  0  0  0  0  0  0  0
    3.2789   -0.4125    0.0000 C   0  0  0  0  0  0  0  0  0  0  0  0
    3.2789   -1.2375    0.0000 H   0  0  0  0  0  0  0  0  0  0  0  0
    2.5645    0.0000    0.0000 C   0  0  0  0  0  0  0  0  0  0  0  0
    2.5645    0.8250    0.0000 C   0  0  0  0  0  0  0  0  0  0  0  0
    1.7798    1.0799    0.0000 C   0  0  0  0  0  0  0  0  0  0  0  0
    1.2949    0.4125    0.0000 C   0  0  0  0  0  0  0  0  0  0  0  0
    1.7798   -0.2549    0.0000 C   0  0  0  0  0  0  0  0  0  0  0  0
    1.1864   -0.8280    0.0000 H   0  0  0  0  0  0  0  0  0  0  0  0
    1.9231   -1.0674    0.0000 H   0  0  0  0  0  0  0  0  0  0  0  0
    0.5665    0.7998    0.0000 H   0  0  0  0  0  0  0  0  0  0  0  0
    0.5665    0.0252    0.0000 H   0  0  0  0  0  0  0  0  0  0  0  0
    1.9231    1.8924    0.0000 H   0  0  0  0  0  0  0  0  0  0  0  0
    1.1864    1.6530    0.0000 H   0  0  0  0  0  0  0  0  0  0  0  0
    3.9934    2.4750    0.0000 H   0  0  0  0  0  0  0  0  0  0  0  0
  1  2  2  0  0  0  0
  2  3  1  0  0  0  0
  3  4  1  0  0  0  0
  4  5  2  0  0  0  0
  5  6  1  0  0  0  0
  5  7  1  0  0  0  0
  7  8  1  0  0  0  0
  7  9  2  0  0  0  0
  9 10  1  0  0  0  0
  9 11  1  0  0  0  0
 11 12  1  0  0  0  0
 11 13  2  0  0  0  0
  4 13  1  0  0  0  0
 13 14  1  0  0  0  0
  3 15  1  0  0  0  0
  3 16  1  0  0  0  0
  2 17  1  0  0  0  0
 17 18  1  0  0  0  0
 18 19  2  0  0  0  0
 19 20  1  0  0  0  0
 19 21  1  0  0  0  0
 21 22  2  0  0  0  0
 22 23  1  0  0  0  0
 22 24  1  0  0  0  0
 24 25  2  0  0  0  0
 18 25  1  0  0  0  0
 25 26  1  0  0  0  0
 26 27  1  0  0  0  0
 27 28  1  0  0  0  0
 24 28  1  0  0  0  0
 28 29  1  0  0  0  0
 28 30  1  0  0  0  0
 27 31  1  0  0  0  0
 27 32  1  0  0  0  0
 26 33  1  0  0  0  0
 26 34  1  0  0  0  0
 17 35  1  0  0  0  0
M  END
> <Potency>
5.16341400207183

> <pIC50>
5.287063051864074

> <Outcome>
Active

> <is_active>
1

$$$$

  Mrv1921 08232120312D          

 33 35  0  0  0  0            999 V2000
    0.0000   -2.4750    0.0000 O   0  0  0  0  0  0  0  0  0  0  0  0
    0.7145   -2.8875    0.0000 C   0  0  0  0  0  0  0  0  0  0  0  0
    0.7145   -3.7125    0.0000 C   0  0  0  0  0  0  0  0  0  0  0  0
    0.0000   -4.1250    0.0000 C   0  0  0  0  0  0  0  0  0  0  0  0
    0.0000   -4.9500    0.0000 C   0  0  0  0  0  0  0  0  0  0  0  0
    0.7145   -5.3625    0.0000 H   0  0  0  0  0  0  0  0  0  0  0  0
   -0.7145   -5.3625    0.0000 C   0  0  0  0  0  0  0  0  0  0  0  0
   -0.7145   -6.1875    0.0000 Cl  0  0  0  0  0  0  0  0  0  0  0  0
   -1.4289   -4.9500    0.0000 C   0  0  0  0  0  0  0  0  0  0  0  0
   -2.1434   -5.3625    0.0000 H   0  0  0  0  0  0  0  0  0  0  0  0
   -1.4289   -4.1250    0.0000 C   0  0  0  0  0  0  0  0  0  0  0  0
   -2.1434   -3.7125    0.0000 H   0  0  0  0  0  0  0  0  0  0  0  0
   -0.7145   -3.7125    0.0000 N   0  0  0  0  0  0  0  0  0  0  0  0
    1.1678   -4.4018    0.0000 H   0  0  0  0  0  0  0  0  0  0  0  0
    1.5381   -3.7605    0.0000 H   0  0  0  0  0  0  0  0  0  0  0  0
    1.4289   -2.4750    0.0000 N   0  0  0  0  0  0  0  0  0  0  0  0
    1.4289   -1.6500    0.0000 C   0  0  0  0  0  0  0  0  0  0  0  0
    0.7145   -1.2375    0.0000 C   0  0  0  0  0  0  0  0  0  0  0  0
    0.0000   -1.6500    0.0000 H   0  0  0  0  0  0  0  0  0  0  0  0
    0.7145   -0.4125    0.0000 N   0  0  0  0  0  0  0  0  0  0  0  0
    1.4289    0.0000    0.0000 C   0  0  0  0  0  0  0  0  0  0  0  0
    1.4289    0.8250    0.0000 H   0  0  0  0  0  0  0  0  0  0  0  0
    2.1434   -0.4125    0.0000 C   0  0  0  0  0  0  0  0  0  0  0  0
    2.8579    0.0000    0.0000 C   0  0  0  0  0  0  0  0  0  0  0  0
    3.5724   -0.4125    0.0000 C   0  0  0  0  0  0  0  0  0  0  0  0
    3.5724   -1.2375    0.0000 C   0  0  0  0  0  0  0  0  0  0  0  0
    2.8579   -1.6500    0.0000 C   0  0  0  0  0  0  0  0  0  0  0  0
    2.8579   -2.4750    0.0000 H   0  0  0  0  0  0  0  0  0  0  0  0
    2.1434   -1.2375    0.0000 C   0  0  0  0  0  0  0  0  0  0  0  0
    4.2868   -1.6500    0.0000 H   0  0  0  0  0  0  0  0  0  0  0  0
    4.2868   -0.0000    0.0000 H   0  0  0  0  0  0  0  0  0  0  0  0
    2.8579    0.8250    0.0000 H   0  0  0  0  0  0  0  0  0  0  0  0
    2.1434   -2.8875    0.0000 H   0  0  0  0  0  0  0  0  0  0  0  0
  1  2  2  0  0  0  0
  2  3  1  0  0  0  0
  3  4  1  0  0  0  0
  4  5  2  0  0  0  0
  5  6  1  0  0  0  0
  5  7  1  0  0  0  0
  7  8  1  0  0  0  0
  7  9  2  0  0  0  0
  9 10  1  0  0  0  0
  9 11  1  0  0  0  0
 11 12  1  0  0  0  0
 11 13  2  0  0  0  0
  4 13  1  0  0  0  0
  3 14  1  0  0  0  0
  3 15  1  0  0  0  0
  2 16  1  0  0  0  0
 16 17  1  0  0  0  0
 17 18  2  0  0  0  0
 18 19  1  0  0  0  0
 18 20  1  0  0  0  0
 20 21  2  0  0  0  0
 21 22  1  0  0  0  0
 21 23  1  0  0  0  0
 23 24  2  0  0  0  0
 24 25  1  0  0  0  0
 25 26  2  0  0  0  0
 26 27  1  0  0  0  0
 27 28  1  0  0  0  0
 27 29  2  0  0  0  0
 17 29  1  0  0  0  0
 23 29  1  0  0  0  0
 26 30  1  0  0  0  0
 25 31  1  0  0  0  0
 24 32  1  0  0  0  0
 16 33  1  0  0  0  0
M  END
> <Potency>
3.39726824812966

> <pIC50>
5.468870159905655

> <Outcome>
Active

> <is_active>
1

$$$$

  Mrv1921 08232120312D          

 56 60  0  0  0  0            999 V2000
   -0.4752   -1.7084    0.0000 O   0  0  0  0  0  0  0  0  0  0  0  0
    0.0768   -2.3215    0.0000 C   0  0  0  0  0  0  0  0  0  0  0  0
    0.8838   -2.1500    0.0000 C   0  0  0  0  0  0  0  0  0  0  0  0
    1.1387   -1.3654    0.0000 N   0  0  0  0  0  0  0  0  0  0  0  0
    0.6538   -0.6979    0.0000 N   0  0  0  0  0  0  0  0  0  0  0  0
    1.1387   -0.0305    0.0000 N   0  0  0  0  0  0  0  0  0  0  0  0
    1.9233   -0.2854    0.0000 C   0  0  0  0  0  0  0  0  0  0  0  0
    2.6378    0.1271    0.0000 C   0  0  0  0  0  0  0  0  0  0  0  0
    3.3523   -0.2854    0.0000 C   0  0  0  0  0  0  0  0  0  0  0  0
    3.3523   -1.1104    0.0000 C   0  0  0  0  0  0  0  0  0  0  0  0
    2.6378   -1.5229    0.0000 C   0  0  0  0  0  0  0  0  0  0  0  0
    2.6378   -2.3479    0.0000 H   0  0  0  0  0  0  0  0  0  0  0  0
    1.9233   -1.1104    0.0000 C   0  0  0  0  0  0  0  0  0  0  0  0
    4.0668   -1.5229    0.0000 H   0  0  0  0  0  0  0  0  0  0  0  0
    4.0668    0.1271    0.0000 H   0  0  0  0  0  0  0  0  0  0  0  0
    2.6378    0.9521    0.0000 H   0  0  0  0  0  0  0  0  0  0  0  0
    1.1019   -2.9456    0.0000 H   0  0  0  0  0  0  0  0  0  0  0  0
    1.6523   -2.4501    0.0000 H   0  0  0  0  0  0  0  0  0  0  0  0
   -0.1781   -3.1062    0.0000 N   0  0  0  0  0  0  0  0  0  0  0  0
    0.3739   -3.7192    0.0000 C   0  0  0  0  0  0  0  0  0  0  0  0
    0.1190   -4.5039    0.0000 C   0  0  0  0  0  0  0  0  0  0  0  0
    0.6039   -5.1713    0.0000 C   0  0  0  0  0  0  0  0  0  0  0  0
    1.4289   -5.1713    0.0000 H   0  0  0  0  0  0  0  0  0  0  0  0
    0.1190   -5.8387    0.0000 C   0  0  0  0  0  0  0  0  0  0  0  0
    0.3739   -6.6234    0.0000 H   0  0  0  0  0  0  0  0  0  0  0  0
   -0.6657   -5.5838    0.0000 S   0  0  0  0  0  0  0  0  0  0  0  0
   -0.6657   -4.7588    0.0000 C   0  0  0  0  0  0  0  0  0  0  0  0
   -1.4421   -5.0377    0.0000 H   0  0  0  0  0  0  0  0  0  0  0  0
    1.1720   -3.9281    0.0000 H   0  0  0  0  0  0  0  0  0  0  0  0
    1.0181   -3.2038    0.0000 H   0  0  0  0  0  0  0  0  0  0  0  0
   -0.9851   -3.2777    0.0000 C   0  0  0  0  0  0  0  0  0  0  0  0
   -1.2400   -4.0623    0.0000 C   0  0  0  0  0  0  0  0  0  0  0  0
   -0.4295   -3.9083    0.0000 H   0  0  0  0  0  0  0  0  0  0  0  0
   -2.0470   -4.2338    0.0000 C   0  0  0  0  0  0  0  0  0  0  0  0
   -2.3020   -5.0184    0.0000 H   0  0  0  0  0  0  0  0  0  0  0  0
   -2.5990   -3.6207    0.0000 C   0  0  0  0  0  0  0  0  0  0  0  0
   -3.4060   -3.7923    0.0000 N   0  0  0  0  0  0  0  0  0  0  0  0
   -3.6610   -4.5769    0.0000 C   0  0  0  0  0  0  0  0  0  0  0  0
   -3.4428   -5.3725    0.0000 H   0  0  0  0  0  0  0  0  0  0  0  0
   -2.8925   -4.8770    0.0000 H   0  0  0  0  0  0  0  0  0  0  0  0
   -4.4679   -4.7484    0.0000 C   0  0  0  0  0  0  0  0  0  0  0  0
   -5.0479   -5.3352    0.0000 H   0  0  0  0  0  0  0  0  0  0  0  0
   -4.3436   -5.5640    0.0000 H   0  0  0  0  0  0  0  0  0  0  0  0
   -5.0200   -4.1353    0.0000 C   0  0  0  0  0  0  0  0  0  0  0  0
   -5.8181   -3.9264    0.0000 H   0  0  0  0  0  0  0  0  0  0  0  0
   -5.6641   -4.6508    0.0000 H   0  0  0  0  0  0  0  0  0  0  0  0
   -4.7650   -3.3507    0.0000 C   0  0  0  0  0  0  0  0  0  0  0  0
   -4.9832   -2.5551    0.0000 H   0  0  0  0  0  0  0  0  0  0  0  0
   -5.5335   -3.0506    0.0000 H   0  0  0  0  0  0  0  0  0  0  0  0
   -3.9580   -3.1792    0.0000 C   0  0  0  0  0  0  0  0  0  0  0  0
   -3.3781   -2.5924    0.0000 H   0  0  0  0  0  0  0  0  0  0  0  0
   -4.0824   -2.3636    0.0000 H   0  0  0  0  0  0  0  0  0  0  0  0
   -2.3441   -2.8361    0.0000 C   0  0  0  0  0  0  0  0  0  0  0  0
   -2.8961   -2.2230    0.0000 H   0  0  0  0  0  0  0  0  0  0  0  0
   -1.5371   -2.6646    0.0000 C   0  0  0  0  0  0  0  0  0  0  0  0
   -1.2822   -1.8800    0.0000 H   0  0  0  0  0  0  0  0  0  0  0  0
  1  2  2  0  0  0  0
  2  3  1  0  0  0  0
  3  4  1  0  0  0  0
  4  5  1  0  0  0  0
  5  6  2  0  0  0  0
  6  7  1  0  0  0  0
  7  8  2  0  0  0  0
  8  9  1  0  0  0  0
  9 10  2  0  0  0  0
 10 11  1  0  0  0  0
 11 12  1  0  0  0  0
 11 13  2  0  0  0  0
  4 13  1  0  0  0  0
  7 13  1  0  0  0  0
 10 14  1  0  0  0  0
  9 15  1  0  0  0  0
  8 16  1  0  0  0  0
  3 17  1  0  0  0  0
  3 18  1  0  0  0  0
  2 19  1  0  0  0  0
 19 20  1  0  0  0  0
 20 21  1  0  0  0  0
 21 22  1  0  0  0  0
 22 23  1  0  0  0  0
 22 24  2  0  0  0  0
 24 25  1  0  0  0  0
 24 26  1  0  0  0  0
 26 27  1  0  0  0  0
 21 27  2  0  0  0  0
 27 28  1  0  0  0  0
 20 29  1  0  0  0  0
 20 30  1  0  0  0  0
 19 31  1  0  0  0  0
 31 32  2  0  0  0  0
 32 33  1  0  0  0  0
 32 34  1  0  0  0  0
 34 35  1  0  0  0  0
 34 36  2  0  0  0  0
 36 37  1  0  0  0  0
 37 38  1  0  0  0  0
 38 39  1  0  0  0  0
 38 40  1  0  0  0  0
 38 41  1  0  0  0  0
 41 42  1  0  0  0  0
 41 43  1  0  0  0  0
 41 44  1  0  0  0  0
 44 45  1  0  0  0  0
 44 46  1  0  0  0  0
 44 47  1  0  0  0  0
 47 48  1  0  0  0  0
 47 49  1  0  0  0  0
 47 50  1  0  0  0  0
 37 50  1  0  0  0  0
 50 51  1  0  0  0  0
 50 52  1  0  0  0  0
 36 53  1  0  0  0  0
 53 54  1  0  0  0  0
 53 55  2  0  0  0  0
 31 55  1  0  0  0  0
 55 56  1  0  0  0  0
M  END
> <Potency>
6.56136227397528

> <pIC50>
5.183005982781509

> <Outcome>
Active

> <is_active>
1

$$$$

  Mrv1921 08232120312D          

 33 35  0  0  0  0            999 V2000
    0.0000   -2.4750    0.0000 O   0  0  0  0  0  0  0  0  0  0  0  0
    0.7145   -2.8875    0.0000 C   0  0  0  0  0  0  0  0  0  0  0  0
    0.7145   -3.7125    0.0000 C   0  0  0  0  0  0  0  0  0  0  0  0
    0.0000   -4.1250    0.0000 C   0  0  0  0  0  0  0  0  0  0  0  0
    0.0000   -4.9500    0.0000 C   0  0  0  0  0  0  0  0  0  0  0  0
    0.7145   -5.3625    0.0000 H   0  0  0  0  0  0  0  0  0  0  0  0
   -0.7145   -5.3625    0.0000 C   0  0  0  0  0  0  0  0  0  0  0  0
   -0.7145   -6.1875    0.0000 H   0  0  0  0  0  0  0  0  0  0  0  0
   -1.4289   -4.9500    0.0000 C   0  0  0  0  0  0  0  0  0  0  0  0
   -2.1434   -5.3625    0.0000 H   0  0  0  0  0  0  0  0  0  0  0  0
   -1.4289   -4.1250    0.0000 C   0  0  0  0  0  0  0  0  0  0  0  0
   -2.1434   -3.7125    0.0000 Cl  0  0  0  0  0  0  0  0  0  0  0  0
   -0.7145   -3.7125    0.0000 C   0  0  0  0  0  0  0  0  0  0  0  0
   -0.7145   -2.8875    0.0000 H   0  0  0  0  0  0  0  0  0  0  0  0
    1.1678   -4.4018    0.0000 H   0  0  0  0  0  0  0  0  0  0  0  0
    1.5381   -3.7605    0.0000 H   0  0  0  0  0  0  0  0  0  0  0  0
    1.4289   -2.4750    0.0000 N   0  0  0  0  0  0  0  0  0  0  0  0
    1.4289   -1.6500    0.0000 C   0  0  0  0  0  0  0  0  0  0  0  0
    0.7145   -1.2375    0.0000 C   0  0  0  0  0  0  0  0  0  0  0  0
    0.0000   -1.6500    0.0000 H   0  0  0  0  0  0  0  0  0  0  0  0
    0.7145   -0.4125    0.0000 N   0  0  0  0  0  0  0  0  0  0  0  0
    1.4289    0.0000    0.0000 C   0  0  0  0  0  0  0  0  0  0  0  0
    1.4289    0.8250    0.0000 H   0  0  0  0  0  0  0  0  0  0  0  0
    2.1434   -0.4125    0.0000 C   0  0  0  0  0  0  0  0  0  0  0  0
    2.8579    0.0000    0.0000 C   0  0  0  0  0  0  0  0  0  0  0  0
    3.5724   -0.4125    0.0000 C   0  0  0  0  0  0  0  0  0  0  0  0
    3.5724   -1.2375    0.0000 C   0  0  0  0  0  0  0  0  0  0  0  0
    2.8579   -1.6500    0.0000 N   0  0  0  0  0  0  0  0  0  0  0  0
    2.1434   -1.2375    0.0000 C   0  0  0  0  0  0  0  0  0  0  0  0
    4.2868   -1.6500    0.0000 H   0  0  0  0  0  0  0  0  0  0  0  0
    4.2868   -0.0000    0.0000 H   0  0  0  0  0  0  0  0  0  0  0  0
    2.8579    0.8250    0.0000 H   0  0  0  0  0  0  0  0  0  0  0  0
    2.1434   -2.8875    0.0000 H   0  0  0  0  0  0  0  0  0  0  0  0
  1  2  2  0  0  0  0
  2  3  1  0  0  0  0
  3  4  1  0  0  0  0
  4  5  2  0  0  0  0
  5  6  1  0  0  0  0
  5  7  1  0  0  0  0
  7  8  1  0  0  0  0
  7  9  2  0  0  0  0
  9 10  1  0  0  0  0
  9 11  1  0  0  0  0
 11 12  1  0  0  0  0
 11 13  2  0  0  0  0
  4 13  1  0  0  0  0
 13 14  1  0  0  0  0
  3 15  1  0  0  0  0
  3 16  1  0  0  0  0
  2 17  1  0  0  0  0
 17 18  1  0  0  0  0
 18 19  2  0  0  0  0
 19 20  1  0  0  0  0
 19 21  1  0  0  0  0
 21 22  2  0  0  0  0
 22 23  1  0  0  0  0
 22 24  1  0  0  0  0
 24 25  2  0  0  0  0
 25 26  1  0  0  0  0
 26 27  2  0  0  0  0
 27 28  1  0  0  0  0
 28 29  2  0  0  0  0
 18 29  1  0  0  0  0
 24 29  1  0  0  0  0
 27 30  1  0  0  0  0
 26 31  1  0  0  0  0
 25 32  1  0  0  0  0
 17 33  1  0  0  0  0
M  END
> <Potency>
7.01875264650223

> <pIC50>
5.153740062638655

> <Outcome>
Active

> <is_active>
1

$$$$

  Mrv1921 08232120312D          

 41 43  0  0  0  0            999 V2000
   -0.7145   -2.0625    0.0000 N   0  0  0  0  0  0  0  0  0  0  0  0
    0.0000   -1.6500    0.0000 C   0  0  0  0  0  0  0  0  0  0  0  0
    0.7145   -1.2375    0.0000 C   0  0  0  0  0  0  0  0  0  0  0  0
    0.7145   -0.4125    0.0000 C   0  0  0  0  0  0  0  0  0  0  0  0
    0.0000    0.0000    0.0000 H   0  0  0  0  0  0  0  0  0  0  0  0
    1.4289    0.0000    0.0000 C   0  0  0  0  0  0  0  0  0  0  0  0
    1.4289    0.8250    0.0000 C   0  0  0  0  0  0  0  0  0  0  0  0
    2.1434    1.2375    0.0000 N   0  0  0  0  0  0  0  0  0  0  0  0
    2.1434    2.0625    0.0000 C   0  0  0  0  0  0  0  0  0  0  0  0
    1.6901    2.7518    0.0000 H   0  0  0  0  0  0  0  0  0  0  0  0
    1.3198    2.1105    0.0000 H   0  0  0  0  0  0  0  0  0  0  0  0
    2.8579    2.4750    0.0000 C   0  0  0  0  0  0  0  0  0  0  0  0
    3.2281    3.2122    0.0000 H   0  0  0  0  0  0  0  0  0  0  0  0
    2.4876    3.2122    0.0000 H   0  0  0  0  0  0  0  0  0  0  0  0
    3.5724    2.0625    0.0000 N   0  0  0  0  0  0  0  0  0  0  0  0
    4.2868    2.4750    0.0000 C   0  0  0  0  0  0  0  0  0  0  0  0
    4.2868    3.3000    0.0000 O   0  0  0  0  0  0  0  0  0  0  0  0
    5.0013    2.0625    0.0000 C   0  0  0  0  0  0  0  0  0  0  0  0
    5.7158    2.4750    0.0000 Cl  0  0  0  0  0  0  0  0  0  0  0  0
    4.6310    1.3253    0.0000 H   0  0  0  0  0  0  0  0  0  0  0  0
    5.3716    1.3253    0.0000 H   0  0  0  0  0  0  0  0  0  0  0  0
    3.5724    1.2375    0.0000 C   0  0  0  0  0  0  0  0  0  0  0  0
    4.0257    0.5482    0.0000 H   0  0  0  0  0  0  0  0  0  0  0  0
    4.3960    1.1895    0.0000 H   0  0  0  0  0  0  0  0  0  0  0  0
    2.8579    0.8250    0.0000 C   0  0  0  0  0  0  0  0  0  0  0  0
    2.1434    0.4125    0.0000 H   0  0  0  0  0  0  0  0  0  0  0  0
    2.8579    1.6500    0.0000 H   0  0  0  0  0  0  0  0  0  0  0  0
    0.9756    1.5143    0.0000 H   0  0  0  0  0  0  0  0  0  0  0  0
    0.6053    0.8730    0.0000 H   0  0  0  0  0  0  0  0  0  0  0  0
    2.1434   -0.4125    0.0000 C   0  0  0  0  0  0  0  0  0  0  0  0
    2.8579    0.0000    0.0000 C   0  0  0  0  0  0  0  0  0  0  0  0
    3.5724   -0.4125    0.0000 C   0  0  0  0  0  0  0  0  0  0  0  0
    3.5724   -1.2375    0.0000 C   0  0  0  0  0  0  0  0  0  0  0  0
    2.8579   -1.6500    0.0000 C   0  0  0  0  0  0  0  0  0  0  0  0
    2.8579   -2.4750    0.0000 H   0  0  0  0  0  0  0  0  0  0  0  0
    2.1434   -1.2375    0.0000 C   0  0  0  0  0  0  0  0  0  0  0  0
    1.4289   -1.6500    0.0000 C   0  0  0  0  0  0  0  0  0  0  0  0
    1.4289   -2.4750    0.0000 H   0  0  0  0  0  0  0  0  0  0  0  0
    4.2868   -1.6500    0.0000 H   0  0  0  0  0  0  0  0  0  0  0  0
    4.3974   -0.4125    0.0000 H   0  0  0  0  0  0  0  0  0  0  0  0
    3.5724    0.4125    0.0000 H   0  0  0  0  0  0  0  0  0  0  0  0
  1  2  3  0  0  0  0
  2  3  1  0  0  0  0
  3  4  2  0  0  0  0
  4  5  1  0  0  0  0
  4  6  1  0  0  0  0
  6  7  1  0  0  0  0
  7  8  1  0  0  0  0
  8  9  1  0  0  0  0
  9 10  1  0  0  0  0
  9 11  1  0  0  0  0
  9 12  1  0  0  0  0
 12 13  1  0  0  0  0
 12 14  1  0  0  0  0
 12 15  1  0  0  0  0
 15 16  1  0  0  0  0
 16 17  2  0  0  0  0
 16 18  1  0  0  0  0
 18 19  1  0  0  0  0
 18 20  1  0  0  0  0
 18 21  1  0  0  0  0
 15 22  1  0  0  0  0
 22 23  1  0  0  0  0
 22 24  1  0  0  0  0
 22 25  1  0  0  0  0
  8 25  1  0  0  0  0
 25 26  1  0  0  0  0
 25 27  1  0  0  0  0
  7 28  1  0  0  0  0
  7 29  1  0  0  0  0
  6 30  2  0  0  0  0
 30 31  1  0  0  0  0
 31 32  2  0  0  0  0
 32 33  1  0  0  0  0
 33 34  2  0  0  0  0
 34 35  1  0  0  0  0
 34 36  1  0  0  0  0
 30 36  1  0  0  0  0
 36 37  2  0  0  0  0
  3 37  1  0  0  0  0
 37 38  1  0  0  0  0
 33 39  1  0  0  0  0
 32 40  1  0  0  0  0
 31 41  1  0  0  0  0
M  END
> <Potency>
4.60620593726261

> <pIC50>
5.336656649216462

> <Outcome>
Active

> <is_active>
1

$$$$

  Mrv1921 08232120312D          

 45 48  0  0  0  0            999 V2000
    3.5724   -2.0625    0.0000 C   0  0  0  0  0  0  0  0  0  0  0  0
    4.2868   -1.6500    0.0000 S   0  0  0  0  0  0  0  0  0  0  0  0
    4.6993   -2.3645    0.0000 O   0  0  0  0  0  0  0  0  0  0  0  0
    3.8743   -0.9355    0.0000 O   0  0  0  0  0  0  0  0  0  0  0  0
    5.0013   -1.2375    0.0000 C   0  0  0  0  0  0  0  0  0  0  0  0
    5.0013   -0.4125    0.0000 C   0  0  0  0  0  0  0  0  0  0  0  0
    4.2868    0.0000    0.0000 H   0  0  0  0  0  0  0  0  0  0  0  0
    5.7158    0.0000    0.0000 C   0  0  0  0  0  0  0  0  0  0  0  0
    5.7158    0.8250    0.0000 H   0  0  0  0  0  0  0  0  0  0  0  0
    6.4302   -0.4125    0.0000 C   0  0  0  0  0  0  0  0  0  0  0  0
    7.1447    0.0000    0.0000 C   0  0  0  0  0  0  0  0  0  0  0  0
    7.1447    0.8250    0.0000 N   0  0  0  0  0  0  0  0  0  0  0  0
    7.8592    1.2375    0.0000 C   0  0  0  0  0  0  0  0  0  0  0  0
    8.5737    0.8250    0.0000 O   0  0  0  0  0  0  0  0  0  0  0  0
    7.8592    2.0625    0.0000 C   0  0  0  0  0  0  0  0  0  0  0  0
    7.1447    2.4750    0.0000 C   0  0  0  0  0  0  0  0  0  0  0  0
    6.3211    2.4270    0.0000 H   0  0  0  0  0  0  0  0  0  0  0  0
    6.6914    1.7857    0.0000 H   0  0  0  0  0  0  0  0  0  0  0  0
    7.1447    3.3000    0.0000 C   0  0  0  0  0  0  0  0  0  0  0  0
    6.6914    3.9893    0.0000 H   0  0  0  0  0  0  0  0  0  0  0  0
    6.3211    3.3480    0.0000 H   0  0  0  0  0  0  0  0  0  0  0  0
    7.8592    3.7125    0.0000 O   0  0  0  0  0  0  0  0  0  0  0  0
    8.5737    3.3000    0.0000 C   0  0  0  0  0  0  0  0  0  0  0  0
    9.2881    3.7125    0.0000 C   0  0  0  0  0  0  0  0  0  0  0  0
   10.0026    3.3000    0.0000 C   0  0  0  0  0  0  0  0  0  0  0  0
   10.0026    2.4750    0.0000 C   0  0  0  0  0  0  0  0  0  0  0  0
   10.7171    2.0625    0.0000 Cl  0  0  0  0  0  0  0  0  0  0  0  0
    9.2881    2.0625    0.0000 C   0  0  0  0  0  0  0  0  0  0  0  0
    9.7006    1.3480    0.0000 H   0  0  0  0  0  0  0  0  0  0  0  0
    8.5737    2.4750    0.0000 C   0  0  0  0  0  0  0  0  0  0  0  0
   10.7171    3.7125    0.0000 H   0  0  0  0  0  0  0  0  0  0  0  0
    9.2881    4.5375    0.0000 H   0  0  0  0  0  0  0  0  0  0  0  0
    8.5737    1.6500    0.0000 H   0  0  0  0  0  0  0  0  0  0  0  0
    6.4302    1.2375    0.0000 H   0  0  0  0  0  0  0  0  0  0  0  0
    7.8592   -0.4125    0.0000 C   0  0  0  0  0  0  0  0  0  0  0  0
    7.8592   -1.2375    0.0000 N   0  0  0  0  0  0  0  0  0  0  0  0
    7.1447   -1.6500    0.0000 C   0  0  0  0  0  0  0  0  0  0  0  0
    7.1447   -2.4750    0.0000 H   0  0  0  0  0  0  0  0  0  0  0  0
    6.4302   -1.2375    0.0000 C   0  0  0  0  0  0  0  0  0  0  0  0
    5.7158   -1.6500    0.0000 C   0  0  0  0  0  0  0  0  0  0  0  0
    5.7158   -2.4750    0.0000 H   0  0  0  0  0  0  0  0  0  0  0  0
    8.5737    0.0000    0.0000 H   0  0  0  0  0  0  0  0  0  0  0  0
    3.1599   -1.3480    0.0000 H   0  0  0  0  0  0  0  0  0  0  0  0
    2.8579   -2.4750    0.0000 H   0  0  0  0  0  0  0  0  0  0  0  0
    3.9849   -2.7770    0.0000 H   0  0  0  0  0  0  0  0  0  0  0  0
  1  2  1  0  0  0  0
  2  3  2  0  0  0  0
  2  4  2  0  0  0  0
  2  5  1  0  0  0  0
  5  6  2  0  0  0  0
  6  7  1  0  0  0  0
  6  8  1  0  0  0  0
  8  9  1  0  0  0  0
  8 10  2  0  0  0  0
 10 11  1  0  0  0  0
 11 12  1  0  0  0  0
 12 13  1  0  0  0  0
 13 14  2  0  0  0  0
 13 15  1  0  0  0  0
 15 16  1  0  0  0  0
 16 17  1  0  0  0  0
 16 18  1  0  0  0  0
 16 19  1  0  0  0  0
 19 20  1  0  0  0  0
 19 21  1  0  0  0  0
 19 22  1  0  0  0  0
 22 23  1  0  0  0  0
 23 24  2  0  0  0  0
 24 25  1  0  0  0  0
 25 26  2  0  0  0  0
 26 27  1  0  0  0  0
 26 28  1  0  0  0  0
 28 29  1  0  0  0  0
 28 30  2  0  0  0  0
 15 30  1  0  0  0  0
 23 30  1  0  0  0  0
 25 31  1  0  0  0  0
 24 32  1  0  0  0  0
 15 33  1  0  0  0  0
 12 34  1  0  0  0  0
 11 35  2  0  0  0  0
 35 36  1  0  0  0  0
 36 37  2  0  0  0  0
 37 38  1  0  0  0  0
 37 39  1  0  0  0  0
 10 39  1  0  0  0  0
 39 40  2  0  0  0  0
  5 40  1  0  0  0  0
 40 41  1  0  0  0  0
 35 42  1  0  0  0  0
  1 43  1  0  0  0  0
  1 44  1  0  0  0  0
  1 45  1  0  0  0  0
M  END
> <Potency>
0.427099623688083

> <pIC50>
6.36947081122422

> <Outcome>
Active

> <is_active>
1

$$$$

  Mrv1921 08232120312D          

 49 52  0  0  0  0            999 V2000
   -5.0013   -2.8875    0.0000 C   0  0  0  0  0  0  0  0  0  0  0  0
   -4.2868   -2.4750    0.0000 C   0  0  0  0  0  0  0  0  0  0  0  0
   -3.5724   -2.8875    0.0000 C   0  0  0  0  0  0  0  0  0  0  0  0
   -2.8579   -2.4750    0.0000 O   0  0  0  0  0  0  0  0  0  0  0  0
   -2.1434   -2.8875    0.0000 C   0  0  0  0  0  0  0  0  0  0  0  0
   -2.1434   -3.7125    0.0000 C   0  0  0  0  0  0  0  0  0  0  0  0
   -2.8579   -4.1250    0.0000 H   0  0  0  0  0  0  0  0  0  0  0  0
   -1.4289   -4.1250    0.0000 C   0  0  0  0  0  0  0  0  0  0  0  0
   -1.4289   -4.9500    0.0000 Cl  0  0  0  0  0  0  0  0  0  0  0  0
   -0.7145   -3.7125    0.0000 C   0  0  0  0  0  0  0  0  0  0  0  0
    0.0000   -4.1250    0.0000 H   0  0  0  0  0  0  0  0  0  0  0  0
   -0.7145   -2.8875    0.0000 C   0  0  0  0  0  0  0  0  0  0  0  0
   -1.4289   -2.4750    0.0000 C   0  0  0  0  0  0  0  0  0  0  0  0
   -1.4289   -1.6500    0.0000 O   0  0  0  0  0  0  0  0  0  0  0  0
   -0.7145   -1.2375    0.0000 C   0  0  0  0  0  0  0  0  0  0  0  0
    0.0000   -1.6500    0.0000 C   0  0  0  0  0  0  0  0  0  0  0  0
    0.0000   -2.4750    0.0000 C   0  0  0  0  0  0  0  0  0  0  0  0
    0.7145   -2.8875    0.0000 C   0  0  0  0  0  0  0  0  0  0  0  0
    0.7145   -3.7125    0.0000 O   0  0  0  0  0  0  0  0  0  0  0  0
    1.4289   -2.4750    0.0000 N   0  0  0  0  0  0  0  0  0  0  0  0
    1.4289   -1.6500    0.0000 C   0  0  0  0  0  0  0  0  0  0  0  0
    0.7145   -1.2375    0.0000 C   0  0  0  0  0  0  0  0  0  0  0  0
    0.0000   -0.8250    0.0000 H   0  0  0  0  0  0  0  0  0  0  0  0
    0.7145   -0.4125    0.0000 N   0  0  0  0  0  0  0  0  0  0  0  0
    1.4289    0.0000    0.0000 C   0  0  0  0  0  0  0  0  0  0  0  0
    1.4289    0.8250    0.0000 H   0  0  0  0  0  0  0  0  0  0  0  0
    2.1434   -0.4125    0.0000 C   0  0  0  0  0  0  0  0  0  0  0  0
    2.8579    0.0000    0.0000 C   0  0  0  0  0  0  0  0  0  0  0  0
    3.5724   -0.4125    0.0000 C   0  0  0  0  0  0  0  0  0  0  0  0
    3.5724   -1.2375    0.0000 C   0  0  0  0  0  0  0  0  0  0  0  0
    2.8579   -1.6500    0.0000 C   0  0  0  0  0  0  0  0  0  0  0  0
    2.8579   -2.4750    0.0000 H   0  0  0  0  0  0  0  0  0  0  0  0
    2.1434   -1.2375    0.0000 C   0  0  0  0  0  0  0  0  0  0  0  0
    4.2868   -1.6500    0.0000 H   0  0  0  0  0  0  0  0  0  0  0  0
    4.2868   -0.0000    0.0000 H   0  0  0  0  0  0  0  0  0  0  0  0
    2.8579    0.8250    0.0000 H   0  0  0  0  0  0  0  0  0  0  0  0
    2.1434   -2.8875    0.0000 H   0  0  0  0  0  0  0  0  0  0  0  0
    0.0000   -3.3000    0.0000 H   0  0  0  0  0  0  0  0  0  0  0  0
    0.7145   -2.0625    0.0000 H   0  0  0  0  0  0  0  0  0  0  0  0
   -0.7145   -2.0625    0.0000 H   0  0  0  0  0  0  0  0  0  0  0  0
   -0.3442   -0.5003    0.0000 H   0  0  0  0  0  0  0  0  0  0  0  0
   -1.0847   -0.5003    0.0000 H   0  0  0  0  0  0  0  0  0  0  0  0
   -3.9426   -3.6247    0.0000 H   0  0  0  0  0  0  0  0  0  0  0  0
   -3.2021   -3.6247    0.0000 H   0  0  0  0  0  0  0  0  0  0  0  0
   -3.9166   -1.7378    0.0000 H   0  0  0  0  0  0  0  0  0  0  0  0
   -4.6571   -1.7378    0.0000 H   0  0  0  0  0  0  0  0  0  0  0  0
   -5.4138   -2.1730    0.0000 H   0  0  0  0  0  0  0  0  0  0  0  0
   -5.7158   -3.3000    0.0000 H   0  0  0  0  0  0  0  0  0  0  0  0
   -4.5888   -3.6020    0.0000 H   0  0  0  0  0  0  0  0  0  0  0  0
  1  2  1  0  0  0  0
  2  3  1  0  0  0  0
  3  4  1  0  0  0  0
  4  5  1  0  0  0  0
  5  6  2  0  0  0  0
  6  7  1  0  0  0  0
  6  8  1  0  0  0  0
  8  9  1  0  0  0  0
  8 10  2  0  0  0  0
 10 11  1  0  0  0  0
 10 12  1  0  0  0  0
 12 13  2  0  0  0  0
  5 13  1  0  0  0  0
 13 14  1  0  0  0  0
 14 15  1  0  0  0  0
 15 16  1  0  0  0  0
 16 17  1  0  0  0  0
 12 17  1  0  0  0  0
 17 18  1  0  0  0  0
 18 19  2  0  0  0  0
 18 20  1  0  0  0  0
 20 21  1  0  0  0  0
 21 22  2  0  0  0  0
 22 23  1  0  0  0  0
 22 24  1  0  0  0  0
 24 25  2  0  0  0  0
 25 26  1  0  0  0  0
 25 27  1  0  0  0  0
 27 28  2  0  0  0  0
 28 29  1  0  0  0  0
 29 30  2  0  0  0  0
 30 31  1  0  0  0  0
 31 32  1  0  0  0  0
 31 33  2  0  0  0  0
 21 33  1  0  0  0  0
 27 33  1  0  0  0  0
 30 34  1  0  0  0  0
 29 35  1  0  0  0  0
 28 36  1  0  0  0  0
 20 37  1  0  0  0  0
 17 38  1  0  0  0  0
 16 39  1  0  0  0  0
 16 40  1  0  0  0  0
 15 41  1  0  0  0  0
 15 42  1  0  0  0  0
  3 43  1  0  0  0  0
  3 44  1  0  0  0  0
  2 45  1  0  0  0  0
  2 46  1  0  0  0  0
  1 47  1  0  0  0  0
  1 48  1  0  0  0  0
  1 49  1  0  0  0  0
M  END
> <Potency>
5.63296261751072

> <pIC50>
5.24926313089898

> <Outcome>
Active

> <is_active>
1

$$$$

  Mrv1921 08232120312D          

 33 35  0  0  0  0            999 V2000
    0.0000   -2.4750    0.0000 O   0  0  0  0  0  0  0  0  0  0  0  0
    0.7145   -2.8875    0.0000 C   0  0  0  0  0  0  0  0  0  0  0  0
    0.7145   -3.7125    0.0000 C   0  0  0  0  0  0  0  0  0  0  0  0
    0.0000   -4.1250    0.0000 C   0  0  0  0  0  0  0  0  0  0  0  0
    0.0000   -4.9500    0.0000 C   0  0  0  0  0  0  0  0  0  0  0  0
    0.7145   -5.3625    0.0000 H   0  0  0  0  0  0  0  0  0  0  0  0
   -0.7145   -5.3625    0.0000 C   0  0  0  0  0  0  0  0  0  0  0  0
   -0.7145   -6.1875    0.0000 H   0  0  0  0  0  0  0  0  0  0  0  0
   -1.4289   -4.9500    0.0000 C   0  0  0  0  0  0  0  0  0  0  0  0
   -2.1434   -5.3625    0.0000 Cl  0  0  0  0  0  0  0  0  0  0  0  0
   -1.4289   -4.1250    0.0000 C   0  0  0  0  0  0  0  0  0  0  0  0
   -2.1434   -3.7125    0.0000 Cl  0  0  0  0  0  0  0  0  0  0  0  0
   -0.7145   -3.7125    0.0000 C   0  0  0  0  0  0  0  0  0  0  0  0
   -0.7145   -2.8875    0.0000 H   0  0  0  0  0  0  0  0  0  0  0  0
    1.1678   -4.4018    0.0000 H   0  0  0  0  0  0  0  0  0  0  0  0
    1.5381   -3.7605    0.0000 H   0  0  0  0  0  0  0  0  0  0  0  0
    1.4289   -2.4750    0.0000 N   0  0  0  0  0  0  0  0  0  0  0  0
    1.4289   -1.6500    0.0000 C   0  0  0  0  0  0  0  0  0  0  0  0
    0.7145   -1.2375    0.0000 C   0  0  0  0  0  0  0  0  0  0  0  0
    0.0000   -1.6500    0.0000 H   0  0  0  0  0  0  0  0  0  0  0  0
    0.7145   -0.4125    0.0000 N   0  0  0  0  0  0  0  0  0  0  0  0
    1.4289    0.0000    0.0000 C   0  0  0  0  0  0  0  0  0  0  0  0
    1.4289    0.8250    0.0000 H   0  0  0  0  0  0  0  0  0  0  0  0
    2.1434   -0.4125    0.0000 C   0  0  0  0  0  0  0  0  0  0  0  0
    2.8579    0.0000    0.0000 C   0  0  0  0  0  0  0  0  0  0  0  0
    3.5724   -0.4125    0.0000 N   0  0  0  0  0  0  0  0  0  0  0  0
    3.5724   -1.2375    0.0000 C   0  0  0  0  0  0  0  0  0  0  0  0
    2.8579   -1.6500    0.0000 C   0  0  0  0  0  0  0  0  0  0  0  0
    2.8579   -2.4750    0.0000 H   0  0  0  0  0  0  0  0  0  0  0  0
    2.1434   -1.2375    0.0000 C   0  0  0  0  0  0  0  0  0  0  0  0
    4.2868   -1.6500    0.0000 H   0  0  0  0  0  0  0  0  0  0  0  0
    2.8579    0.8250    0.0000 H   0  0  0  0  0  0  0  0  0  0  0  0
    2.1434   -2.8875    0.0000 H   0  0  0  0  0  0  0  0  0  0  0  0
  1  2  2  0  0  0  0
  2  3  1  0  0  0  0
  3  4  1  0  0  0  0
  4  5  2  0  0  0  0
  5  6  1  0  0  0  0
  5  7  1  0  0  0  0
  7  8  1  0  0  0  0
  7  9  2  0  0  0  0
  9 10  1  0  0  0  0
  9 11  1  0  0  0  0
 11 12  1  0  0  0  0
 11 13  2  0  0  0  0
  4 13  1  0  0  0  0
 13 14  1  0  0  0  0
  3 15  1  0  0  0  0
  3 16  1  0  0  0  0
  2 17  1  0  0  0  0
 17 18  1  0  0  0  0
 18 19  2  0  0  0  0
 19 20  1  0  0  0  0
 19 21  1  0  0  0  0
 21 22  2  0  0  0  0
 22 23  1  0  0  0  0
 22 24  1  0  0  0  0
 24 25  2  0  0  0  0
 25 26  1  0  0  0  0
 26 27  2  0  0  0  0
 27 28  1  0  0  0  0
 28 29  1  0  0  0  0
 28 30  2  0  0  0  0
 18 30  1  0  0  0  0
 24 30  1  0  0  0  0
 27 31  1  0  0  0  0
 25 32  1  0  0  0  0
 17 33  1  0  0  0  0
M  END
> <Potency>
1.84702645209317

> <pIC50>
5.733526884789408

> <Outcome>
Active

> <is_active>
1

$$$$

  Mrv1921 08232120312D          

 33 35  0  0  0  0            999 V2000
    0.0000   -2.4750    0.0000 O   0  0  0  0  0  0  0  0  0  0  0  0
    0.7145   -2.8875    0.0000 C   0  0  0  0  0  0  0  0  0  0  0  0
    0.7145   -3.7125    0.0000 C   0  0  0  0  0  0  0  0  0  0  0  0
    0.0000   -4.1250    0.0000 C   0  0  0  0  0  0  0  0  0  0  0  0
    0.0000   -4.9500    0.0000 C   0  0  0  0  0  0  0  0  0  0  0  0
    0.7145   -5.3625    0.0000 H   0  0  0  0  0  0  0  0  0  0  0  0
   -0.7145   -5.3625    0.0000 C   0  0  0  0  0  0  0  0  0  0  0  0
   -0.7145   -6.1875    0.0000 H   0  0  0  0  0  0  0  0  0  0  0  0
   -1.4289   -4.9500    0.0000 C   0  0  0  0  0  0  0  0  0  0  0  0
   -2.1434   -5.3625    0.0000 Cl  0  0  0  0  0  0  0  0  0  0  0  0
   -1.4289   -4.1250    0.0000 C   0  0  0  0  0  0  0  0  0  0  0  0
   -2.1434   -3.7125    0.0000 Cl  0  0  0  0  0  0  0  0  0  0  0  0
   -0.7145   -3.7125    0.0000 C   0  0  0  0  0  0  0  0  0  0  0  0
   -0.7145   -2.8875    0.0000 H   0  0  0  0  0  0  0  0  0  0  0  0
    1.1678   -4.4018    0.0000 H   0  0  0  0  0  0  0  0  0  0  0  0
    1.5381   -3.7605    0.0000 H   0  0  0  0  0  0  0  0  0  0  0  0
    1.4289   -2.4750    0.0000 N   0  0  0  0  0  0  0  0  0  0  0  0
    1.4289   -1.6500    0.0000 C   0  0  0  0  0  0  0  0  0  0  0  0
    0.7145   -1.2375    0.0000 C   0  0  0  0  0  0  0  0  0  0  0  0
    0.0000   -1.6500    0.0000 H   0  0  0  0  0  0  0  0  0  0  0  0
    0.7145   -0.4125    0.0000 N   0  0  0  0  0  0  0  0  0  0  0  0
    1.4289    0.0000    0.0000 C   0  0  0  0  0  0  0  0  0  0  0  0
    1.4289    0.8250    0.0000 H   0  0  0  0  0  0  0  0  0  0  0  0
    2.1434   -0.4125    0.0000 C   0  0  0  0  0  0  0  0  0  0  0  0
    2.8579    0.0000    0.0000 C   0  0  0  0  0  0  0  0  0  0  0  0
    3.5724   -0.4125    0.0000 C   0  0  0  0  0  0  0  0  0  0  0  0
    3.5724   -1.2375    0.0000 N   0  0  0  0  0  0  0  0  0  0  0  0
    2.8579   -1.6500    0.0000 C   0  0  0  0  0  0  0  0  0  0  0  0
    2.8579   -2.4750    0.0000 H   0  0  0  0  0  0  0  0  0  0  0  0
    2.1434   -1.2375    0.0000 C   0  0  0  0  0  0  0  0  0  0  0  0
    4.2868   -0.0000    0.0000 H   0  0  0  0  0  0  0  0  0  0  0  0
    2.8579    0.8250    0.0000 H   0  0  0  0  0  0  0  0  0  0  0  0
    2.1434   -2.8875    0.0000 H   0  0  0  0  0  0  0  0  0  0  0  0
  1  2  2  0  0  0  0
  2  3  1  0  0  0  0
  3  4  1  0  0  0  0
  4  5  2  0  0  0  0
  5  6  1  0  0  0  0
  5  7  1  0  0  0  0
  7  8  1  0  0  0  0
  7  9  2  0  0  0  0
  9 10  1  0  0  0  0
  9 11  1  0  0  0  0
 11 12  1  0  0  0  0
 11 13  2  0  0  0  0
  4 13  1  0  0  0  0
 13 14  1  0  0  0  0
  3 15  1  0  0  0  0
  3 16  1  0  0  0  0
  2 17  1  0  0  0  0
 17 18  1  0  0  0  0
 18 19  1  0  0  0  0
 19 20  1  0  0  0  0
 19 21  2  0  0  0  0
 21 22  1  0  0  0  0
 22 23  1  0  0  0  0
 22 24  2  0  0  0  0
 24 25  1  0  0  0  0
 25 26  2  0  0  0  0
 26 27  1  0  0  0  0
 27 28  2  0  0  0  0
 28 29  1  0  0  0  0
 28 30  1  0  0  0  0
 18 30  2  0  0  0  0
 24 30  1  0  0  0  0
 26 31  1  0  0  0  0
 25 32  1  0  0  0  0
 17 33  1  0  0  0  0
M  END
> <Potency>
1.78522012750902

> <pIC50>
5.748308225339897

> <Outcome>
Active

> <is_active>
1

$$$$

  Mrv1921 08232120312D          

 35 37  0  0  0  0            999 V2000
   -0.7145   -7.0125    0.0000 N   0  0  0  0  0  0  0  0  0  0  0  0
   -0.7145   -6.1875    0.0000 C   0  0  0  0  0  0  0  0  0  0  0  0
   -0.7145   -5.3625    0.0000 C   0  0  0  0  0  0  0  0  0  0  0  0
   -1.4289   -4.9500    0.0000 C   0  0  0  0  0  0  0  0  0  0  0  0
   -2.1434   -5.3625    0.0000 H   0  0  0  0  0  0  0  0  0  0  0  0
   -1.4289   -4.1250    0.0000 C   0  0  0  0  0  0  0  0  0  0  0  0
   -2.1434   -3.7125    0.0000 Cl  0  0  0  0  0  0  0  0  0  0  0  0
   -0.7145   -3.7125    0.0000 C   0  0  0  0  0  0  0  0  0  0  0  0
   -0.7145   -2.8875    0.0000 H   0  0  0  0  0  0  0  0  0  0  0  0
    0.0000   -4.1250    0.0000 C   0  0  0  0  0  0  0  0  0  0  0  0
    0.7145   -3.7125    0.0000 C   0  0  0  0  0  0  0  0  0  0  0  0
    0.7145   -2.8875    0.0000 C   0  0  0  0  0  0  0  0  0  0  0  0
    0.0000   -2.4750    0.0000 O   0  0  0  0  0  0  0  0  0  0  0  0
    1.4289   -2.4750    0.0000 N   0  0  0  0  0  0  0  0  0  0  0  0
    1.4289   -1.6500    0.0000 C   0  0  0  0  0  0  0  0  0  0  0  0
    0.7145   -1.2375    0.0000 C   0  0  0  0  0  0  0  0  0  0  0  0
    0.0000   -1.6500    0.0000 H   0  0  0  0  0  0  0  0  0  0  0  0
    0.7145   -0.4125    0.0000 N   0  0  0  0  0  0  0  0  0  0  0  0
    1.4289    0.0000    0.0000 C   0  0  0  0  0  0  0  0  0  0  0  0
    1.4289    0.8250    0.0000 H   0  0  0  0  0  0  0  0  0  0  0  0
    2.1434   -0.4125    0.0000 C   0  0  0  0  0  0  0  0  0  0  0  0
    2.8579    0.0000    0.0000 C   0  0  0  0  0  0  0  0  0  0  0  0
    3.5724   -0.4125    0.0000 C   0  0  0  0  0  0  0  0  0  0  0  0
    3.5724   -1.2375    0.0000 C   0  0  0  0  0  0  0  0  0  0  0  0
    2.8579   -1.6500    0.0000 C   0  0  0  0  0  0  0  0  0  0  0  0
    2.8579   -2.4750    0.0000 H   0  0  0  0  0  0  0  0  0  0  0  0
    2.1434   -1.2375    0.0000 C   0  0  0  0  0  0  0  0  0  0  0  0
    4.2868   -1.6500    0.0000 H   0  0  0  0  0  0  0  0  0  0  0  0
    4.2868   -0.0000    0.0000 H   0  0  0  0  0  0  0  0  0  0  0  0
    2.8579    0.8250    0.0000 H   0  0  0  0  0  0  0  0  0  0  0  0
    2.1434   -2.8875    0.0000 H   0  0  0  0  0  0  0  0  0  0  0  0
    1.1678   -4.4018    0.0000 H   0  0  0  0  0  0  0  0  0  0  0  0
    1.5381   -3.7605    0.0000 H   0  0  0  0  0  0  0  0  0  0  0  0
    0.0000   -4.9500    0.0000 C   0  0  0  0  0  0  0  0  0  0  0  0
    0.7145   -5.3625    0.0000 H   0  0  0  0  0  0  0  0  0  0  0  0
  1  2  3  0  0  0  0
  2  3  1  0  0  0  0
  3  4  2  0  0  0  0
  4  5  1  0  0  0  0
  4  6  1  0  0  0  0
  6  7  1  0  0  0  0
  6  8  2  0  0  0  0
  8  9  1  0  0  0  0
  8 10  1  0  0  0  0
 10 11  1  0  0  0  0
 11 12  1  0  0  0  0
 12 13  2  0  0  0  0
 12 14  1  0  0  0  0
 14 15  1  0  0  0  0
 15 16  2  0  0  0  0
 16 17  1  0  0  0  0
 16 18  1  0  0  0  0
 18 19  2  0  0  0  0
 19 20  1  0  0  0  0
 19 21  1  0  0  0  0
 21 22  2  0  0  0  0
 22 23  1  0  0  0  0
 23 24  2  0  0  0  0
 24 25  1  0  0  0  0
 25 26  1  0  0  0  0
 25 27  2  0  0  0  0
 15 27  1  0  0  0  0
 21 27  1  0  0  0  0
 24 28  1  0  0  0  0
 23 29  1  0  0  0  0
 22 30  1  0  0  0  0
 14 31  1  0  0  0  0
 11 32  1  0  0  0  0
 11 33  1  0  0  0  0
 10 34  2  0  0  0  0
  3 34  1  0  0  0  0
 34 35  1  0  0  0  0
M  END
> <Potency>
0.430707834683473

> <pIC50>
6.365817228240063

> <Outcome>
Active

> <is_active>
1

$$$$

  Mrv1921 08232120312D          

 39 42  0  0  0  0            999 V2000
    0.7145    1.2375    0.0000 O   0  0  0  0  0  0  0  0  0  0  0  0
    0.0000    0.8250    0.0000 C   0  0  0  0  0  0  0  0  0  0  0  0
   -0.7145    1.2375    0.0000 N   0  0  0  0  0  0  0  0  0  0  0  0
   -0.7145    2.0625    0.0000 C   0  0  0  0  0  0  0  0  0  0  0  0
   -1.4289    2.4750    0.0000 C   0  0  0  0  0  0  0  0  0  0  0  0
   -2.1434    2.0625    0.0000 H   0  0  0  0  0  0  0  0  0  0  0  0
   -1.4289    3.3000    0.0000 N   0  0  0  0  0  0  0  0  0  0  0  0
   -0.7145    3.7125    0.0000 C   0  0  0  0  0  0  0  0  0  0  0  0
   -0.7145    4.5375    0.0000 H   0  0  0  0  0  0  0  0  0  0  0  0
    0.0000    3.3000    0.0000 C   0  0  0  0  0  0  0  0  0  0  0  0
    0.7145    3.7125    0.0000 C   0  0  0  0  0  0  0  0  0  0  0  0
    1.4289    3.3000    0.0000 C   0  0  0  0  0  0  0  0  0  0  0  0
    1.4289    2.4750    0.0000 C   0  0  0  0  0  0  0  0  0  0  0  0
    0.7145    2.0625    0.0000 C   0  0  0  0  0  0  0  0  0  0  0  0
    0.0000    1.6500    0.0000 H   0  0  0  0  0  0  0  0  0  0  0  0
    0.0000    2.4750    0.0000 C   0  0  0  0  0  0  0  0  0  0  0  0
    2.1434    2.0625    0.0000 H   0  0  0  0  0  0  0  0  0  0  0  0
    2.1434    3.7125    0.0000 H   0  0  0  0  0  0  0  0  0  0  0  0
    0.7145    4.5375    0.0000 H   0  0  0  0  0  0  0  0  0  0  0  0
   -1.4289    0.8250    0.0000 H   0  0  0  0  0  0  0  0  0  0  0  0
    0.0000   -0.0000    0.0000 C   0  0  0  0  0  0  0  0  0  0  0  0
   -0.7145   -0.4125    0.0000 C   0  0  0  0  0  0  0  0  0  0  0  0
   -1.1678    0.2768    0.0000 H   0  0  0  0  0  0  0  0  0  0  0  0
   -1.5381   -0.3645    0.0000 H   0  0  0  0  0  0  0  0  0  0  0  0
   -0.7145   -1.2375    0.0000 C   0  0  0  0  0  0  0  0  0  0  0  0
   -1.5381   -1.2855    0.0000 H   0  0  0  0  0  0  0  0  0  0  0  0
   -1.1678   -1.9268    0.0000 H   0  0  0  0  0  0  0  0  0  0  0  0
    0.0000   -1.6500    0.0000 O   0  0  0  0  0  0  0  0  0  0  0  0
    0.7145   -1.2375    0.0000 C   0  0  0  0  0  0  0  0  0  0  0  0
    0.7145   -0.4125    0.0000 C   0  0  0  0  0  0  0  0  0  0  0  0
    1.4289   -0.0000    0.0000 C   0  0  0  0  0  0  0  0  0  0  0  0
    2.1434   -0.4125    0.0000 C   0  0  0  0  0  0  0  0  0  0  0  0
    2.1434   -1.2375    0.0000 C   0  0  0  0  0  0  0  0  0  0  0  0
    2.8579   -1.6500    0.0000 Cl  0  0  0  0  0  0  0  0  0  0  0  0
    1.4289   -1.6500    0.0000 C   0  0  0  0  0  0  0  0  0  0  0  0
    1.4289   -2.4750    0.0000 Cl  0  0  0  0  0  0  0  0  0  0  0  0
    2.8579   -0.0000    0.0000 H   0  0  0  0  0  0  0  0  0  0  0  0
    1.8414    0.7145    0.0000 H   0  0  0  0  0  0  0  0  0  0  0  0
    0.7145    0.4125    0.0000 H   0  0  0  0  0  0  0  0  0  0  0  0
  1  2  2  0  0  0  0
  2  3  1  0  0  0  0
  3  4  1  0  0  0  0
  4  5  2  0  0  0  0
  5  6  1  0  0  0  0
  5  7  1  0  0  0  0
  7  8  2  0  0  0  0
  8  9  1  0  0  0  0
  8 10  1  0  0  0  0
 10 11  2  0  0  0  0
 11 12  1  0  0  0  0
 12 13  2  0  0  0  0
 13 14  1  0  0  0  0
 14 15  1  0  0  0  0
 14 16  2  0  0  0  0
  4 16  1  0  0  0  0
 10 16  1  0  0  0  0
 13 17  1  0  0  0  0
 12 18  1  0  0  0  0
 11 19  1  0  0  0  0
  3 20  1  0  0  0  0
  2 21  1  0  0  0  0
 21 22  1  0  0  0  0
 22 23  1  0  0  0  0
 22 24  1  0  0  0  0
 22 25  1  0  0  0  0
 25 26  1  0  0  0  0
 25 27  1  0  0  0  0
 25 28  1  0  0  0  0
 28 29  1  0  0  0  0
 29 30  2  0  0  0  0
 21 30  1  0  0  0  0
 30 31  1  0  0  0  0
 31 32  2  0  0  0  0
 32 33  1  0  0  0  0
 33 34  1  0  0  0  0
 33 35  2  0  0  0  0
 29 35  1  0  0  0  0
 35 36  1  0  0  0  0
 32 37  1  0  0  0  0
 31 38  1  0  0  0  0
 21 39  1  0  0  0  0
M  END
> <Potency>
3.31392840302894

> <pIC50>
5.479656878688361

> <Outcome>
Active

> <is_active>
1

$$$$

  Mrv1921 08232120312D          

 40 43  0  0  0  0            999 V2000
    2.1434   -2.8875    0.0000 O   0  0  0  0  0  0  0  0  0  0  0  0
    1.4289   -2.4750    0.0000 C   0  0  0  0  0  0  0  0  0  0  0  0
    0.7145   -2.8875    0.0000 N   0  0  0  0  0  0  0  0  0  0  0  0
    0.7145   -3.7125    0.0000 C   0  0  0  0  0  0  0  0  0  0  0  0
    1.4289   -4.1250    0.0000 C   0  0  0  0  0  0  0  0  0  0  0  0
    2.1434   -3.7125    0.0000 H   0  0  0  0  0  0  0  0  0  0  0  0
    1.4289   -4.9500    0.0000 N   0  0  0  0  0  0  0  0  0  0  0  0
    0.7145   -5.3625    0.0000 C   0  0  0  0  0  0  0  0  0  0  0  0
    0.7145   -6.1875    0.0000 H   0  0  0  0  0  0  0  0  0  0  0  0
    0.0000   -4.9500    0.0000 C   0  0  0  0  0  0  0  0  0  0  0  0
   -0.7145   -5.3625    0.0000 C   0  0  0  0  0  0  0  0  0  0  0  0
   -1.4289   -4.9500    0.0000 C   0  0  0  0  0  0  0  0  0  0  0  0
   -1.4289   -4.1250    0.0000 C   0  0  0  0  0  0  0  0  0  0  0  0
   -2.1434   -3.7125    0.0000 O   0  0  0  0  0  0  0  0  0  0  0  0
   -2.1434   -2.8875    0.0000 H   0  0  0  0  0  0  0  0  0  0  0  0
   -0.7145   -3.7125    0.0000 C   0  0  0  0  0  0  0  0  0  0  0  0
   -0.7145   -2.8875    0.0000 H   0  0  0  0  0  0  0  0  0  0  0  0
    0.0000   -4.1250    0.0000 C   0  0  0  0  0  0  0  0  0  0  0  0
   -2.1434   -5.3625    0.0000 H   0  0  0  0  0  0  0  0  0  0  0  0
   -0.7145   -6.1875    0.0000 H   0  0  0  0  0  0  0  0  0  0  0  0
    0.0000   -2.4750    0.0000 H   0  0  0  0  0  0  0  0  0  0  0  0
    1.4289   -1.6500    0.0000 C   0  0  0  0  0  0  0  0  0  0  0  0
    0.7145   -1.2375    0.0000 C   0  0  0  0  0  0  0  0  0  0  0  0
   -0.1091   -1.2855    0.0000 H   0  0  0  0  0  0  0  0  0  0  0  0
    0.2611   -1.9268    0.0000 H   0  0  0  0  0  0  0  0  0  0  0  0
    0.7145   -0.4125    0.0000 C   0  0  0  0  0  0  0  0  0  0  0  0
    0.2611    0.2768    0.0000 H   0  0  0  0  0  0  0  0  0  0  0  0
   -0.1091   -0.3645    0.0000 H   0  0  0  0  0  0  0  0  0  0  0  0
    1.4289    0.0000    0.0000 O   0  0  0  0  0  0  0  0  0  0  0  0
    2.1434   -0.4125    0.0000 C   0  0  0  0  0  0  0  0  0  0  0  0
    2.8579    0.0000    0.0000 C   0  0  0  0  0  0  0  0  0  0  0  0
    3.5724   -0.4125    0.0000 C   0  0  0  0  0  0  0  0  0  0  0  0
    3.5724   -1.2375    0.0000 C   0  0  0  0  0  0  0  0  0  0  0  0
    4.2868   -1.6500    0.0000 Cl  0  0  0  0  0  0  0  0  0  0  0  0
    2.8579   -1.6500    0.0000 C   0  0  0  0  0  0  0  0  0  0  0  0
    3.2704   -2.3645    0.0000 H   0  0  0  0  0  0  0  0  0  0  0  0
    2.1434   -1.2375    0.0000 C   0  0  0  0  0  0  0  0  0  0  0  0
    4.2868   -0.0000    0.0000 H   0  0  0  0  0  0  0  0  0  0  0  0
    2.8579    0.8250    0.0000 H   0  0  0  0  0  0  0  0  0  0  0  0
    2.1434   -2.0625    0.0000 H   0  0  0  0  0  0  0  0  0  0  0  0
  1  2  2  0  0  0  0
  2  3  1  0  0  0  0
  3  4  1  0  0  0  0
  4  5  2  0  0  0  0
  5  6  1  0  0  0  0
  5  7  1  0  0  0  0
  7  8  2  0  0  0  0
  8  9  1  0  0  0  0
  8 10  1  0  0  0  0
 10 11  2  0  0  0  0
 11 12  1  0  0  0  0
 12 13  2  0  0  0  0
 13 14  1  0  0  0  0
 14 15  1  0  0  0  0
 13 16  1  0  0  0  0
 16 17  1  0  0  0  0
 16 18  2  0  0  0  0
  4 18  1  0  0  0  0
 10 18  1  0  0  0  0
 12 19  1  0  0  0  0
 11 20  1  0  0  0  0
  3 21  1  0  0  0  0
  2 22  1  0  0  0  0
 22 23  1  0  0  0  0
 23 24  1  0  0  0  0
 23 25  1  0  0  0  0
 23 26  1  0  0  0  0
 26 27  1  0  0  0  0
 26 28  1  0  0  0  0
 26 29  1  0  0  0  0
 29 30  1  0  0  0  0
 30 31  2  0  0  0  0
 31 32  1  0  0  0  0
 32 33  2  0  0  0  0
 33 34  1  0  0  0  0
 33 35  1  0  0  0  0
 35 36  1  0  0  0  0
 35 37  2  0  0  0  0
 22 37  1  0  0  0  0
 30 37  1  0  0  0  0
 32 38  1  0  0  0  0
 31 39  1  0  0  0  0
 22 40  1  0  0  0  0
M  END
> <Potency>
0.175653078506604

> <pIC50>
6.755344234333586

> <Outcome>
Active

> <is_active>
1

$$$$

  Mrv1921 08232120312D          

 47 50  0  0  0  0            999 V2000
    2.1434   -2.8875    0.0000 O   0  0  0  0  0  0  0  0  0  0  0  0
    1.4289   -2.4750    0.0000 C   0  0  0  0  0  0  0  0  0  0  0  0
    1.4289   -1.6500    0.0000 C   0  0  0  0  0  0  0  0  0  0  0  0
    0.7145   -1.2375    0.0000 C   0  0  0  0  0  0  0  0  0  0  0  0
    0.0000   -1.6500    0.0000 H   0  0  0  0  0  0  0  0  0  0  0  0
    0.7145   -0.4125    0.0000 C   0  0  0  0  0  0  0  0  0  0  0  0
    0.0000    0.0000    0.0000 O   0  0  0  0  0  0  0  0  0  0  0  0
    1.4289    0.0000    0.0000 N   0  0  0  0  0  0  0  0  0  0  0  0
    1.4289    0.8250    0.0000 H   0  0  0  0  0  0  0  0  0  0  0  0
    2.1434   -0.4125    0.0000 C   0  0  0  0  0  0  0  0  0  0  0  0
    2.8579    0.0000    0.0000 C   0  0  0  0  0  0  0  0  0  0  0  0
    3.5724   -0.4125    0.0000 C   0  0  0  0  0  0  0  0  0  0  0  0
    3.5724   -1.2375    0.0000 C   0  0  0  0  0  0  0  0  0  0  0  0
    2.8579   -1.6500    0.0000 C   0  0  0  0  0  0  0  0  0  0  0  0
    2.8579   -2.4750    0.0000 H   0  0  0  0  0  0  0  0  0  0  0  0
    2.1434   -1.2375    0.0000 C   0  0  0  0  0  0  0  0  0  0  0  0
    4.2868   -1.6500    0.0000 H   0  0  0  0  0  0  0  0  0  0  0  0
    4.2868   -0.0000    0.0000 H   0  0  0  0  0  0  0  0  0  0  0  0
    2.8579    0.8250    0.0000 H   0  0  0  0  0  0  0  0  0  0  0  0
    0.7145   -2.8875    0.0000 N   0  0  0  0  0  0  0  0  0  0  0  0
    0.7145   -3.7125    0.0000 C   0  0  0  0  0  0  0  0  0  0  0  0
    1.1678   -4.4018    0.0000 H   0  0  0  0  0  0  0  0  0  0  0  0
    1.5381   -3.7605    0.0000 H   0  0  0  0  0  0  0  0  0  0  0  0
    0.0000   -4.1250    0.0000 C   0  0  0  0  0  0  0  0  0  0  0  0
   -0.3703   -4.8622    0.0000 H   0  0  0  0  0  0  0  0  0  0  0  0
    0.3703   -4.8622    0.0000 H   0  0  0  0  0  0  0  0  0  0  0  0
   -0.7145   -3.7125    0.0000 N   0  0  0  0  0  0  0  0  0  0  0  0
   -1.4289   -4.1250    0.0000 C   0  0  0  0  0  0  0  0  0  0  0  0
   -1.4289   -4.9500    0.0000 C   0  0  0  0  0  0  0  0  0  0  0  0
   -0.7145   -5.3625    0.0000 H   0  0  0  0  0  0  0  0  0  0  0  0
   -2.1434   -5.3625    0.0000 C   0  0  0  0  0  0  0  0  0  0  0  0
   -2.1434   -6.1875    0.0000 H   0  0  0  0  0  0  0  0  0  0  0  0
   -2.8579   -4.9500    0.0000 C   0  0  0  0  0  0  0  0  0  0  0  0
   -3.5724   -5.3625    0.0000 H   0  0  0  0  0  0  0  0  0  0  0  0
   -2.8579   -4.1250    0.0000 C   0  0  0  0  0  0  0  0  0  0  0  0
   -3.5724   -3.7125    0.0000 C   0  0  0  0  0  0  0  0  0  0  0  0
   -4.2868   -3.3000    0.0000 F   0  0  0  0  0  0  0  0  0  0  0  0
   -3.1599   -2.9980    0.0000 F   0  0  0  0  0  0  0  0  0  0  0  0
   -3.9849   -4.4270    0.0000 F   0  0  0  0  0  0  0  0  0  0  0  0
   -2.1434   -3.7125    0.0000 C   0  0  0  0  0  0  0  0  0  0  0  0
   -2.1434   -2.8875    0.0000 H   0  0  0  0  0  0  0  0  0  0  0  0
   -0.7145   -2.8875    0.0000 C   0  0  0  0  0  0  0  0  0  0  0  0
   -1.1678   -2.1982    0.0000 H   0  0  0  0  0  0  0  0  0  0  0  0
   -1.5381   -2.8395    0.0000 H   0  0  0  0  0  0  0  0  0  0  0  0
    0.0000   -2.4750    0.0000 C   0  0  0  0  0  0  0  0  0  0  0  0
    0.7145   -2.0625    0.0000 H   0  0  0  0  0  0  0  0  0  0  0  0
    0.0000   -3.3000    0.0000 H   0  0  0  0  0  0  0  0  0  0  0  0
  1  2  2  0  0  0  0
  2  3  1  0  0  0  0
  3  4  4  0  0  0  0
  4  5  1  0  0  0  0
  4  6  4  0  0  0  0
  6  7  2  0  0  0  0
  6  8  4  0  0  0  0
  8  9  1  0  0  0  0
  8 10  4  0  0  0  0
 10 11  4  0  0  0  0
 11 12  4  0  0  0  0
 12 13  4  0  0  0  0
 13 14  4  0  0  0  0
 14 15  1  0  0  0  0
 14 16  4  0  0  0  0
  3 16  4  0  0  0  0
 10 16  4  0  0  0  0
 13 17  1  0  0  0  0
 12 18  1  0  0  0  0
 11 19  1  0  0  0  0
  2 20  1  0  0  0  0
 20 21  1  0  0  0  0
 21 22  1  0  0  0  0
 21 23  1  0  0  0  0
 21 24  1  0  0  0  0
 24 25  1  0  0  0  0
 24 26  1  0  0  0  0
 24 27  1  0  0  0  0
 27 28  1  0  0  0  0
 28 29  2  0  0  0  0
 29 30  1  0  0  0  0
 29 31  1  0  0  0  0
 31 32  1  0  0  0  0
 31 33  2  0  0  0  0
 33 34  1  0  0  0  0
 33 35  1  0  0  0  0
 35 36  1  0  0  0  0
 36 37  1  0  0  0  0
 36 38  1  0  0  0  0
 36 39  1  0  0  0  0
 35 40  2  0  0  0  0
 28 40  1  0  0  0  0
 40 41  1  0  0  0  0
 27 42  1  0  0  0  0
 42 43  1  0  0  0  0
 42 44  1  0  0  0  0
 42 45  1  0  0  0  0
 20 45  1  0  0  0  0
 45 46  1  0  0  0  0
 45 47  1  0  0  0  0
M  END
> <Potency>
3.7997194894517

> <pIC50>
5.420248463562112

> <Outcome>
Active

> <is_active>
1

$$$$

  Mrv1921 08232120312D          

 37 39  0  0  0  0            999 V2000
   -1.4289    0.8250    0.0000 O   0  0  0  0  0  0  0  0  0  0  0  0
   -0.7145    1.2375    0.0000 C   0  0  0  0  0  0  0  0  0  0  0  0
   -0.7145    2.0625    0.0000 C   0  0  0  0  0  0  0  0  0  0  0  0
   -1.4289    2.4750    0.0000 C   0  0  0  0  0  0  0  0  0  0  0  0
   -2.1434    2.0625    0.0000 C   0  0  0  0  0  0  0  0  0  0  0  0
   -2.1434    1.2375    0.0000 H   0  0  0  0  0  0  0  0  0  0  0  0
   -2.8579    2.4750    0.0000 C   0  0  0  0  0  0  0  0  0  0  0  0
   -3.5724    2.0625    0.0000 H   0  0  0  0  0  0  0  0  0  0  0  0
   -2.8579    3.3000    0.0000 C   0  0  0  0  0  0  0  0  0  0  0  0
   -3.5724    3.7125    0.0000 H   0  0  0  0  0  0  0  0  0  0  0  0
   -2.1434    3.7125    0.0000 C   0  0  0  0  0  0  0  0  0  0  0  0
   -2.1434    4.5375    0.0000 Cl  0  0  0  0  0  0  0  0  0  0  0  0
   -1.4289    3.3000    0.0000 C   0  0  0  0  0  0  0  0  0  0  0  0
   -0.7145    3.7125    0.0000 H   0  0  0  0  0  0  0  0  0  0  0  0
    0.1091    2.1105    0.0000 H   0  0  0  0  0  0  0  0  0  0  0  0
   -0.2611    2.7518    0.0000 H   0  0  0  0  0  0  0  0  0  0  0  0
    0.0000    0.8250    0.0000 N   0  0  0  0  0  0  0  0  0  0  0  0
    0.0000   -0.0000    0.0000 C   0  0  0  0  0  0  0  0  0  0  0  0
   -0.7145   -0.4125    0.0000 C   0  0  0  0  0  0  0  0  0  0  0  0
   -1.4289   -0.0000    0.0000 H   0  0  0  0  0  0  0  0  0  0  0  0
   -0.7145   -1.2375    0.0000 N   0  0  0  0  0  0  0  0  0  0  0  0
    0.0000   -1.6500    0.0000 C   0  0  0  0  0  0  0  0  0  0  0  0
    0.0000   -2.4750    0.0000 H   0  0  0  0  0  0  0  0  0  0  0  0
    0.7145   -1.2375    0.0000 C   0  0  0  0  0  0  0  0  0  0  0  0
    0.7145   -0.4125    0.0000 C   0  0  0  0  0  0  0  0  0  0  0  0
    1.4289   -0.0000    0.0000 C   0  0  0  0  0  0  0  0  0  0  0  0
    2.1434   -0.4125    0.0000 C   0  0  0  0  0  0  0  0  0  0  0  0
    2.1434   -1.2375    0.0000 C   0  0  0  0  0  0  0  0  0  0  0  0
    1.4289   -1.6500    0.0000 N   0  0  0  0  0  0  0  0  0  0  0  0
    1.4289   -2.4750    0.0000 H   0  0  0  0  0  0  0  0  0  0  0  0
    2.5968   -1.9268    0.0000 H   0  0  0  0  0  0  0  0  0  0  0  0
    2.9670   -1.2855    0.0000 H   0  0  0  0  0  0  0  0  0  0  0  0
    2.9670   -0.3645    0.0000 H   0  0  0  0  0  0  0  0  0  0  0  0
    2.5968    0.2768    0.0000 H   0  0  0  0  0  0  0  0  0  0  0  0
    1.7992    0.7372    0.0000 H   0  0  0  0  0  0  0  0  0  0  0  0
    1.0587    0.7372    0.0000 H   0  0  0  0  0  0  0  0  0  0  0  0
    0.7145    1.2375    0.0000 H   0  0  0  0  0  0  0  0  0  0  0  0
  1  2  2  0  0  0  0
  2  3  1  0  0  0  0
  3  4  1  0  0  0  0
  4  5  2  0  0  0  0
  5  6  1  0  0  0  0
  5  7  1  0  0  0  0
  7  8  1  0  0  0  0
  7  9  2  0  0  0  0
  9 10  1  0  0  0  0
  9 11  1  0  0  0  0
 11 12  1  0  0  0  0
 11 13  2  0  0  0  0
  4 13  1  0  0  0  0
 13 14  1  0  0  0  0
  3 15  1  0  0  0  0
  3 16  1  0  0  0  0
  2 17  1  0  0  0  0
 17 18  1  0  0  0  0
 18 19  2  0  0  0  0
 19 20  1  0  0  0  0
 19 21  1  0  0  0  0
 21 22  2  0  0  0  0
 22 23  1  0  0  0  0
 22 24  1  0  0  0  0
 24 25  2  0  0  0  0
 18 25  1  0  0  0  0
 25 26  1  0  0  0  0
 26 27  1  0  0  0  0
 27 28  1  0  0  0  0
 28 29  1  0  0  0  0
 24 29  1  0  0  0  0
 29 30  1  0  0  0  0
 28 31  1  0  0  0  0
 28 32  1  0  0  0  0
 27 33  1  0  0  0  0
 27 34  1  0  0  0  0
 26 35  1  0  0  0  0
 26 36  1  0  0  0  0
 17 37  1  0  0  0  0
M  END
> <Potency>
7.27197662949492

> <pIC50>
5.138347525509095

> <Outcome>
Active

> <is_active>
1

$$$$

  Mrv1921 08232120312D          

 42 45  0  0  0  0            999 V2000
   -0.7145   -2.8875    0.0000 C   0  0  0  0  0  0  0  0  0  0  0  0
   -0.7145   -3.7125    0.0000 C   0  0  0  0  0  0  0  0  0  0  0  0
   -1.4289   -4.1250    0.0000 C   0  0  0  0  0  0  0  0  0  0  0  0
   -2.1434   -3.7125    0.0000 Cl  0  0  0  0  0  0  0  0  0  0  0  0
   -1.4289   -4.9500    0.0000 C   0  0  0  0  0  0  0  0  0  0  0  0
   -2.1434   -5.3625    0.0000 H   0  0  0  0  0  0  0  0  0  0  0  0
   -0.7145   -5.3625    0.0000 C   0  0  0  0  0  0  0  0  0  0  0  0
   -0.7145   -6.1875    0.0000 H   0  0  0  0  0  0  0  0  0  0  0  0
    0.0000   -4.9500    0.0000 C   0  0  0  0  0  0  0  0  0  0  0  0
    0.0000   -4.1250    0.0000 C   0  0  0  0  0  0  0  0  0  0  0  0
    0.7145   -3.7125    0.0000 C   0  0  0  0  0  0  0  0  0  0  0  0
    0.7145   -2.8875    0.0000 C   0  0  0  0  0  0  0  0  0  0  0  0
    0.0000   -2.4750    0.0000 O   0  0  0  0  0  0  0  0  0  0  0  0
    1.4289   -2.4750    0.0000 N   0  0  0  0  0  0  0  0  0  0  0  0
    1.4289   -1.6500    0.0000 C   0  0  0  0  0  0  0  0  0  0  0  0
    0.7145   -1.2375    0.0000 C   0  0  0  0  0  0  0  0  0  0  0  0
    0.0000   -1.6500    0.0000 H   0  0  0  0  0  0  0  0  0  0  0  0
    0.7145   -0.4125    0.0000 N   0  0  0  0  0  0  0  0  0  0  0  0
    1.4289    0.0000    0.0000 C   0  0  0  0  0  0  0  0  0  0  0  0
    1.4289    0.8250    0.0000 H   0  0  0  0  0  0  0  0  0  0  0  0
    2.1434   -0.4125    0.0000 C   0  0  0  0  0  0  0  0  0  0  0  0
    2.8579    0.0000    0.0000 C   0  0  0  0  0  0  0  0  0  0  0  0
    3.5724   -0.4125    0.0000 C   0  0  0  0  0  0  0  0  0  0  0  0
    3.5724   -1.2375    0.0000 C   0  0  0  0  0  0  0  0  0  0  0  0
    2.8579   -1.6500    0.0000 C   0  0  0  0  0  0  0  0  0  0  0  0
    2.8579   -2.4750    0.0000 H   0  0  0  0  0  0  0  0  0  0  0  0
    2.1434   -1.2375    0.0000 C   0  0  0  0  0  0  0  0  0  0  0  0
    4.2868   -1.6500    0.0000 H   0  0  0  0  0  0  0  0  0  0  0  0
    4.2868   -0.0000    0.0000 H   0  0  0  0  0  0  0  0  0  0  0  0
    2.8579    0.8250    0.0000 H   0  0  0  0  0  0  0  0  0  0  0  0
    2.2539   -2.4750    0.0000 H   0  0  0  0  0  0  0  0  0  0  0  0
    1.4289   -4.1250    0.0000 C   0  0  0  0  0  0  0  0  0  0  0  0
    1.4289   -4.9500    0.0000 C   0  0  0  0  0  0  0  0  0  0  0  0
    0.7145   -5.3625    0.0000 O   0  0  0  0  0  0  0  0  0  0  0  0
    1.5997   -5.7571    0.0000 H   0  0  0  0  0  0  0  0  0  0  0  0
    2.0883   -5.4459    0.0000 H   0  0  0  0  0  0  0  0  0  0  0  0
    2.2042   -4.4072    0.0000 H   0  0  0  0  0  0  0  0  0  0  0  0
    2.2042   -3.8428    0.0000 H   0  0  0  0  0  0  0  0  0  0  0  0
    1.4289   -3.3000    0.0000 H   0  0  0  0  0  0  0  0  0  0  0  0
   -0.7145   -2.0625    0.0000 H   0  0  0  0  0  0  0  0  0  0  0  0
   -1.4289   -2.4750    0.0000 H   0  0  0  0  0  0  0  0  0  0  0  0
   -1.4289   -3.3000    0.0000 H   0  0  0  0  0  0  0  0  0  0  0  0
  1  2  1  0  0  0  0
  2  3  2  0  0  0  0
  3  4  1  0  0  0  0
  3  5  1  0  0  0  0
  5  6  1  0  0  0  0
  5  7  2  0  0  0  0
  7  8  1  0  0  0  0
  7  9  1  0  0  0  0
  9 10  2  0  0  0  0
  2 10  1  0  0  0  0
 10 11  1  0  0  0  0
 11 12  1  0  0  0  0
 12 13  2  0  0  0  0
 12 14  1  0  0  0  0
 14 15  1  0  0  0  0
 15 16  2  0  0  0  0
 16 17  1  0  0  0  0
 16 18  1  0  0  0  0
 18 19  2  0  0  0  0
 19 20  1  0  0  0  0
 19 21  1  0  0  0  0
 21 22  2  0  0  0  0
 22 23  1  0  0  0  0
 23 24  2  0  0  0  0
 24 25  1  0  0  0  0
 25 26  1  0  0  0  0
 25 27  2  0  0  0  0
 15 27  1  0  0  0  0
 21 27  1  0  0  0  0
 24 28  1  0  0  0  0
 23 29  1  0  0  0  0
 22 30  1  0  0  0  0
 14 31  1  0  0  0  0
 11 32  1  0  0  0  0
 32 33  1  0  0  0  0
 33 34  1  0  0  0  0
  9 34  1  0  0  0  0
 33 35  1  0  0  0  0
 33 36  1  0  0  0  0
 32 37  1  0  0  0  0
 32 38  1  0  0  0  0
 11 39  1  0  0  0  0
  1 40  1  0  0  0  0
  1 41  1  0  0  0  0
  1 42  1  0  0  0  0
M  END
> <Potency>
3.66880944274428

> <pIC50>
5.4354748448299945

> <Outcome>
Active

> <is_active>
1

$$$$

  Mrv1921 08232120312D          

 38 40  0  0  0  0            999 V2000
   -0.7145   -1.2375    0.0000 C   0  0  0  0  0  0  0  0  0  0  0  0
    0.0000   -1.6500    0.0000 O   0  0  0  0  0  0  0  0  0  0  0  0
    0.7145   -1.2375    0.0000 C   0  0  0  0  0  0  0  0  0  0  0  0
    0.7145   -0.4125    0.0000 C   0  0  0  0  0  0  0  0  0  0  0  0
    0.0000    0.0000    0.0000 H   0  0  0  0  0  0  0  0  0  0  0  0
    1.4289    0.0000    0.0000 C   0  0  0  0  0  0  0  0  0  0  0  0
    1.4289    0.8250    0.0000 H   0  0  0  0  0  0  0  0  0  0  0  0
    2.1434   -0.4125    0.0000 C   0  0  0  0  0  0  0  0  0  0  0  0
    2.8579    0.0000    0.0000 C   0  0  0  0  0  0  0  0  0  0  0  0
    3.5724   -0.4125    0.0000 N   0  0  0  0  0  0  0  0  0  0  0  0
    3.5724   -1.2375    0.0000 C   0  0  0  0  0  0  0  0  0  0  0  0
    2.8579   -1.6500    0.0000 C   0  0  0  0  0  0  0  0  0  0  0  0
    2.8579   -2.4750    0.0000 N   0  0  0  0  0  0  0  0  0  0  0  0
    2.1434   -2.8875    0.0000 C   0  0  0  0  0  0  0  0  0  0  0  0
    1.4289   -2.4750    0.0000 O   0  0  0  0  0  0  0  0  0  0  0  0
    2.1434   -3.7125    0.0000 C   0  0  0  0  0  0  0  0  0  0  0  0
    1.4289   -4.1250    0.0000 C   0  0  0  0  0  0  0  0  0  0  0  0
    1.4289   -4.9500    0.0000 C   0  0  0  0  0  0  0  0  0  0  0  0
    2.1434   -5.3625    0.0000 H   0  0  0  0  0  0  0  0  0  0  0  0
    0.7145   -5.3625    0.0000 C   0  0  0  0  0  0  0  0  0  0  0  0
    0.7145   -6.1875    0.0000 H   0  0  0  0  0  0  0  0  0  0  0  0
   -0.0000   -4.9500    0.0000 C   0  0  0  0  0  0  0  0  0  0  0  0
   -0.7145   -5.3625    0.0000 H   0  0  0  0  0  0  0  0  0  0  0  0
    0.0000   -4.1250    0.0000 C   0  0  0  0  0  0  0  0  0  0  0  0
   -0.7145   -3.7125    0.0000 Cl  0  0  0  0  0  0  0  0  0  0  0  0
    0.7145   -3.7125    0.0000 C   0  0  0  0  0  0  0  0  0  0  0  0
    0.7145   -2.8875    0.0000 H   0  0  0  0  0  0  0  0  0  0  0  0
    2.5968   -4.4018    0.0000 H   0  0  0  0  0  0  0  0  0  0  0  0
    2.9670   -3.7605    0.0000 H   0  0  0  0  0  0  0  0  0  0  0  0
    3.5724   -2.8875    0.0000 H   0  0  0  0  0  0  0  0  0  0  0  0
    2.1434   -1.2375    0.0000 C   0  0  0  0  0  0  0  0  0  0  0  0
    1.4289   -1.6500    0.0000 C   0  0  0  0  0  0  0  0  0  0  0  0
    0.7145   -2.0625    0.0000 H   0  0  0  0  0  0  0  0  0  0  0  0
    4.2868   -1.6500    0.0000 H   0  0  0  0  0  0  0  0  0  0  0  0
    2.8579    0.8250    0.0000 H   0  0  0  0  0  0  0  0  0  0  0  0
   -0.3020   -0.5230    0.0000 H   0  0  0  0  0  0  0  0  0  0  0  0
   -1.4289   -0.8250    0.0000 H   0  0  0  0  0  0  0  0  0  0  0  0
   -1.1270   -1.9520    0.0000 H   0  0  0  0  0  0  0  0  0  0  0  0
  1  2  1  0  0  0  0
  2  3  1  0  0  0  0
  3  4  2  0  0  0  0
  4  5  1  0  0  0  0
  4  6  1  0  0  0  0
  6  7  1  0  0  0  0
  6  8  2  0  0  0  0
  8  9  1  0  0  0  0
  9 10  2  0  0  0  0
 10 11  1  0  0  0  0
 11 12  2  0  0  0  0
 12 13  1  0  0  0  0
 13 14  1  0  0  0  0
 14 15  2  0  0  0  0
 14 16  1  0  0  0  0
 16 17  1  0  0  0  0
 17 18  2  0  0  0  0
 18 19  1  0  0  0  0
 18 20  1  0  0  0  0
 20 21  1  0  0  0  0
 20 22  2  0  0  0  0
 22 23  1  0  0  0  0
 22 24  1  0  0  0  0
 24 25  1  0  0  0  0
 24 26  2  0  0  0  0
 17 26  1  0  0  0  0
 26 27  1  0  0  0  0
 16 28  1  0  0  0  0
 16 29  1  0  0  0  0
 13 30  1  0  0  0  0
 12 31  1  0  0  0  0
  8 31  1  0  0  0  0
 31 32  2  0  0  0  0
  3 32  1  0  0  0  0
 32 33  1  0  0  0  0
 11 34  1  0  0  0  0
  9 35  1  0  0  0  0
  1 36  1  0  0  0  0
  1 37  1  0  0  0  0
  1 38  1  0  0  0  0
M  END
> <Potency>
0.897800405241959

> <pIC50>
6.046820202905955

> <Outcome>
Active

> <is_active>
1

$$$$

  Mrv1921 08232120312D          

 63 65  0  0  0  0            999 V2000
    0.1067    3.9402    0.0000 C   0  0  0  0  0  0  0  0  0  0  0  0
   -0.6078    3.5277    0.0000 C   0  0  0  0  0  0  0  0  0  0  0  0
   -1.0203    4.2422    0.0000 C   0  0  0  0  0  0  0  0  0  0  0  0
   -1.1279    5.0601    0.0000 H   0  0  0  0  0  0  0  0  0  0  0  0
   -1.8172    4.4557    0.0000 H   0  0  0  0  0  0  0  0  0  0  0  0
   -1.5225    3.5876    0.0000 H   0  0  0  0  0  0  0  0  0  0  0  0
   -0.1953    2.8132    0.0000 C   0  0  0  0  0  0  0  0  0  0  0  0
   -1.0132    2.7055    0.0000 H   0  0  0  0  0  0  0  0  0  0  0  0
   -0.4088    2.0163    0.0000 H   0  0  0  0  0  0  0  0  0  0  0  0
    0.4593    2.3110    0.0000 H   0  0  0  0  0  0  0  0  0  0  0  0
   -1.3222    3.1152    0.0000 N   0  0  0  0  0  0  0  0  0  0  0  0
   -1.3222    2.2902    0.0000 C   0  0  0  0  0  0  0  0  0  0  0  0
   -0.6078    1.8777    0.0000 O   0  0  0  0  0  0  0  0  0  0  0  0
   -2.0367    1.8777    0.0000 C   0  0  0  0  0  0  0  0  0  0  0  0
   -2.7512    2.2902    0.0000 C   0  0  0  0  0  0  0  0  0  0  0  0
   -3.4656    1.8777    0.0000 C   0  0  0  0  0  0  0  0  0  0  0  0
   -2.7512    1.4652    0.0000 H   0  0  0  0  0  0  0  0  0  0  0  0
   -4.1801    2.2902    0.0000 C   0  0  0  0  0  0  0  0  0  0  0  0
   -4.8946    1.8777    0.0000 H   0  0  0  0  0  0  0  0  0  0  0  0
   -4.1801    3.1152    0.0000 C   0  0  0  0  0  0  0  0  0  0  0  0
   -4.8946    3.5277    0.0000 H   0  0  0  0  0  0  0  0  0  0  0  0
   -3.4656    3.5277    0.0000 N   0  0  0  0  0  0  0  0  0  0  0  0
   -2.7512    3.1152    0.0000 C   0  0  0  0  0  0  0  0  0  0  0  0
   -2.4366    3.8779    0.0000 H   0  0  0  0  0  0  0  0  0  0  0  0
   -2.0367    1.0527    0.0000 N   0  0  0  0  0  0  0  0  0  0  0  0
   -1.3222    0.6402    0.0000 C   0  0  0  0  0  0  0  0  0  0  0  0
   -0.6078    1.0527    0.0000 O   0  0  0  0  0  0  0  0  0  0  0  0
   -1.3222   -0.1848    0.0000 C   0  0  0  0  0  0  0  0  0  0  0  0
   -1.9897   -0.6697    0.0000 C   0  0  0  0  0  0  0  0  0  0  0  0
   -2.6419   -1.1749    0.0000 H   0  0  0  0  0  0  0  0  0  0  0  0
   -1.7347   -1.4544    0.0000 C   0  0  0  0  0  0  0  0  0  0  0  0
   -1.8575   -2.2702    0.0000 H   0  0  0  0  0  0  0  0  0  0  0  0
   -0.9097   -1.4544    0.0000 C   0  0  0  0  0  0  0  0  0  0  0  0
   -0.4248   -2.1218    0.0000 H   0  0  0  0  0  0  0  0  0  0  0  0
   -0.6548   -0.6697    0.0000 O   0  0  0  0  0  0  0  0  0  0  0  0
   -2.7512    0.6402    0.0000 C   0  0  0  0  0  0  0  0  0  0  0  0
   -2.7512   -0.1848    0.0000 C   0  0  0  0  0  0  0  0  0  0  0  0
   -2.0279    0.2121    0.0000 H   0  0  0  0  0  0  0  0  0  0  0  0
   -3.4656   -0.5973    0.0000 C   0  0  0  0  0  0  0  0  0  0  0  0
   -3.4656   -1.4223    0.0000 H   0  0  0  0  0  0  0  0  0  0  0  0
   -4.1801   -0.1848    0.0000 C   0  0  0  0  0  0  0  0  0  0  0  0
   -4.8946   -0.5973    0.0000 C   0  0  0  0  0  0  0  0  0  0  0  0
   -5.6091   -1.0098    0.0000 C   0  0  0  0  0  0  0  0  0  0  0  0
   -6.0216   -0.2953    0.0000 H   0  0  0  0  0  0  0  0  0  0  0  0
   -6.3235   -1.4223    0.0000 H   0  0  0  0  0  0  0  0  0  0  0  0
   -5.1966   -1.7243    0.0000 H   0  0  0  0  0  0  0  0  0  0  0  0
   -5.3071    0.1172    0.0000 C   0  0  0  0  0  0  0  0  0  0  0  0
   -4.4891    0.2248    0.0000 H   0  0  0  0  0  0  0  0  0  0  0  0
   -5.0936    0.9140    0.0000 H   0  0  0  0  0  0  0  0  0  0  0  0
   -5.9616    0.6194    0.0000 H   0  0  0  0  0  0  0  0  0  0  0  0
   -4.4821   -1.3118    0.0000 C   0  0  0  0  0  0  0  0  0  0  0  0
   -4.3744   -2.1297    0.0000 H   0  0  0  0  0  0  0  0  0  0  0  0
   -3.6852   -1.5253    0.0000 H   0  0  0  0  0  0  0  0  0  0  0  0
   -3.9799   -0.6573    0.0000 H   0  0  0  0  0  0  0  0  0  0  0  0
   -4.1801    0.6402    0.0000 C   0  0  0  0  0  0  0  0  0  0  0  0
   -4.2757    1.4596    0.0000 H   0  0  0  0  0  0  0  0  0  0  0  0
   -3.4656    1.0527    0.0000 C   0  0  0  0  0  0  0  0  0  0  0  0
   -3.4656    0.2277    0.0000 H   0  0  0  0  0  0  0  0  0  0  0  0
   -2.0367    2.7027    0.0000 H   0  0  0  0  0  0  0  0  0  0  0  0
   -2.1307    2.9509    0.0000 H   0  0  0  0  0  0  0  0  0  0  0  0
    0.5192    3.2257    0.0000 H   0  0  0  0  0  0  0  0  0  0  0  0
    0.8212    4.3527    0.0000 H   0  0  0  0  0  0  0  0  0  0  0  0
   -0.3058    4.6547    0.0000 H   0  0  0  0  0  0  0  0  0  0  0  0
  1  2  1  0  0  0  0
  2  3  1  0  0  0  0
  3  4  1  0  0  0  0
  3  5  1  0  0  0  0
  3  6  1  0  0  0  0
  2  7  1  0  0  0  0
  7  8  1  0  0  0  0
  7  9  1  0  0  0  0
  7 10  1  0  0  0  0
  2 11  1  0  0  0  0
 11 12  1  0  0  0  0
 12 13  2  0  0  0  0
 12 14  1  0  0  0  0
 14 15  1  0  0  0  0
 15 16  2  0  0  0  0
 16 17  1  0  0  0  0
 16 18  1  0  0  0  0
 18 19  1  0  0  0  0
 18 20  2  0  0  0  0
 20 21  1  0  0  0  0
 20 22  1  0  0  0  0
 22 23  2  0  0  0  0
 15 23  1  0  0  0  0
 23 24  1  0  0  0  0
 14 25  1  0  0  0  0
 25 26  1  0  0  0  0
 26 27  2  0  0  0  0
 26 28  1  0  0  0  0
 28 29  2  0  0  0  0
 29 30  1  0  0  0  0
 29 31  1  0  0  0  0
 31 32  1  0  0  0  0
 31 33  2  0  0  0  0
 33 34  1  0  0  0  0
 33 35  1  0  0  0  0
 28 35  1  0  0  0  0
 25 36  1  0  0  0  0
 36 37  2  0  0  0  0
 37 38  1  0  0  0  0
 37 39  1  0  0  0  0
 39 40  1  0  0  0  0
 39 41  2  0  0  0  0
 41 42  1  0  0  0  0
 42 43  1  0  0  0  0
 43 44  1  0  0  0  0
 43 45  1  0  0  0  0
 43 46  1  0  0  0  0
 42 47  1  0  0  0  0
 47 48  1  0  0  0  0
 47 49  1  0  0  0  0
 47 50  1  0  0  0  0
 42 51  1  0  0  0  0
 51 52  1  0  0  0  0
 51 53  1  0  0  0  0
 51 54  1  0  0  0  0
 41 55  1  0  0  0  0
 55 56  1  0  0  0  0
 55 57  2  0  0  0  0
 36 57  1  0  0  0  0
 57 58  1  0  0  0  0
 14 59  1  0  0  0  0
 11 60  1  0  0  0  0
  1 61  1  0  0  0  0
  1 62  1  0  0  0  0
  1 63  1  0  0  0  0
M  END
> <Potency>
3.14421479946325

> <pIC50>
5.50248779245608

> <Outcome>
Active

> <is_active>
1

$$$$

  Mrv1921 08232120312D          

 34 35  0  0  0  0            999 V2000
    4.2868   -1.6500    0.0000 O   0  0  0  0  0  0  0  0  0  0  0  0
    3.5724   -1.2375    0.0000 C   0  0  0  0  0  0  0  0  0  0  0  0
    3.5724   -0.4125    0.0000 C   0  0  0  0  0  0  0  0  0  0  0  0
    4.2868    0.0000    0.0000 Cl  0  0  0  0  0  0  0  0  0  0  0  0
    3.1190    0.2768    0.0000 H   0  0  0  0  0  0  0  0  0  0  0  0
    2.7488   -0.3645    0.0000 H   0  0  0  0  0  0  0  0  0  0  0  0
    2.8579   -1.6500    0.0000 N   0  0  0  0  0  0  0  0  0  0  0  0
    2.8579   -2.4750    0.0000 C   0  0  0  0  0  0  0  0  0  0  0  0
    3.3112   -3.1643    0.0000 H   0  0  0  0  0  0  0  0  0  0  0  0
    3.6815   -2.5230    0.0000 H   0  0  0  0  0  0  0  0  0  0  0  0
    2.1434   -2.8875    0.0000 C   0  0  0  0  0  0  0  0  0  0  0  0
    1.7732   -3.6247    0.0000 H   0  0  0  0  0  0  0  0  0  0  0  0
    2.5137   -3.6247    0.0000 H   0  0  0  0  0  0  0  0  0  0  0  0
    1.4289   -2.4750    0.0000 N   0  0  0  0  0  0  0  0  0  0  0  0
    0.7145   -2.8875    0.0000 C   0  0  0  0  0  0  0  0  0  0  0  0
    0.0000   -2.4750    0.0000 C   0  0  0  0  0  0  0  0  0  0  0  0
   -0.7145   -2.8875    0.0000 C   0  0  0  0  0  0  0  0  0  0  0  0
   -0.7145   -3.7125    0.0000 H   0  0  0  0  0  0  0  0  0  0  0  0
   -1.4289   -2.4750    0.0000 C   0  0  0  0  0  0  0  0  0  0  0  0
   -2.1434   -2.8875    0.0000 H   0  0  0  0  0  0  0  0  0  0  0  0
   -1.4289   -1.6500    0.0000 C   0  0  0  0  0  0  0  0  0  0  0  0
   -2.1434   -1.2375    0.0000 H   0  0  0  0  0  0  0  0  0  0  0  0
   -0.7145   -1.2375    0.0000 C   0  0  0  0  0  0  0  0  0  0  0  0
   -0.7145   -0.4125    0.0000 Cl  0  0  0  0  0  0  0  0  0  0  0  0
    0.0000   -1.6500    0.0000 C   0  0  0  0  0  0  0  0  0  0  0  0
    0.7145   -1.2375    0.0000 H   0  0  0  0  0  0  0  0  0  0  0  0
    0.3442   -3.6247    0.0000 H   0  0  0  0  0  0  0  0  0  0  0  0
    1.0847   -3.6247    0.0000 H   0  0  0  0  0  0  0  0  0  0  0  0
    1.4289   -1.6500    0.0000 C   0  0  0  0  0  0  0  0  0  0  0  0
    1.4289   -0.8250    0.0000 H   0  0  0  0  0  0  0  0  0  0  0  0
    0.7145   -2.0625    0.0000 H   0  0  0  0  0  0  0  0  0  0  0  0
    2.1434   -1.2375    0.0000 C   0  0  0  0  0  0  0  0  0  0  0  0
    2.7754   -0.7072    0.0000 H   0  0  0  0  0  0  0  0  0  0  0  0
    2.2867   -0.4250    0.0000 H   0  0  0  0  0  0  0  0  0  0  0  0
  1  2  2  0  0  0  0
  2  3  1  0  0  0  0
  3  4  1  0  0  0  0
  3  5  1  0  0  0  0
  3  6  1  0  0  0  0
  2  7  1  0  0  0  0
  7  8  1  0  0  0  0
  8  9  1  0  0  0  0
  8 10  1  0  0  0  0
  8 11  1  0  0  0  0
 11 12  1  0  0  0  0
 11 13  1  0  0  0  0
 11 14  1  0  0  0  0
 14 15  1  0  0  0  0
 15 16  1  0  0  0  0
 16 17  2  0  0  0  0
 17 18  1  0  0  0  0
 17 19  1  0  0  0  0
 19 20  1  0  0  0  0
 19 21  2  0  0  0  0
 21 22  1  0  0  0  0
 21 23  1  0  0  0  0
 23 24  1  0  0  0  0
 23 25  2  0  0  0  0
 16 25  1  0  0  0  0
 25 26  1  0  0  0  0
 15 27  1  0  0  0  0
 15 28  1  0  0  0  0
 14 29  1  0  0  0  0
 29 30  1  0  0  0  0
 29 31  1  0  0  0  0
 29 32  1  0  0  0  0
  7 32  1  0  0  0  0
 32 33  1  0  0  0  0
 32 34  1  0  0  0  0
M  END
> <Potency>
2.53626723269054

> <pIC50>
5.595804989130806

> <Outcome>
Active

> <is_active>
1

$$$$

  Mrv1921 08232120312D          

 34 35  0  0  0  0            999 V2000
    4.2868   -1.6500    0.0000 O   0  0  0  0  0  0  0  0  0  0  0  0
    3.5724   -1.2375    0.0000 C   0  0  0  0  0  0  0  0  0  0  0  0
    3.5724   -0.4125    0.0000 C   0  0  0  0  0  0  0  0  0  0  0  0
    4.2868    0.0000    0.0000 Cl  0  0  0  0  0  0  0  0  0  0  0  0
    3.1190    0.2768    0.0000 H   0  0  0  0  0  0  0  0  0  0  0  0
    2.7488   -0.3645    0.0000 H   0  0  0  0  0  0  0  0  0  0  0  0
    2.8579   -1.6500    0.0000 N   0  0  0  0  0  0  0  0  0  0  0  0
    2.8579   -2.4750    0.0000 C   0  0  0  0  0  0  0  0  0  0  0  0
    3.3112   -3.1643    0.0000 H   0  0  0  0  0  0  0  0  0  0  0  0
    3.6815   -2.5230    0.0000 H   0  0  0  0  0  0  0  0  0  0  0  0
    2.1434   -2.8875    0.0000 C   0  0  0  0  0  0  0  0  0  0  0  0
    1.7732   -3.6247    0.0000 H   0  0  0  0  0  0  0  0  0  0  0  0
    2.5137   -3.6247    0.0000 H   0  0  0  0  0  0  0  0  0  0  0  0
    1.4289   -2.4750    0.0000 N   0  0  0  0  0  0  0  0  0  0  0  0
    0.7145   -2.8875    0.0000 C   0  0  0  0  0  0  0  0  0  0  0  0
    0.0000   -2.4750    0.0000 C   0  0  0  0  0  0  0  0  0  0  0  0
   -0.7145   -2.8875    0.0000 C   0  0  0  0  0  0  0  0  0  0  0  0
   -0.7145   -3.7125    0.0000 H   0  0  0  0  0  0  0  0  0  0  0  0
   -1.4289   -2.4750    0.0000 C   0  0  0  0  0  0  0  0  0  0  0  0
   -2.1434   -2.8875    0.0000 Cl  0  0  0  0  0  0  0  0  0  0  0  0
   -1.4289   -1.6500    0.0000 C   0  0  0  0  0  0  0  0  0  0  0  0
   -2.1434   -1.2375    0.0000 H   0  0  0  0  0  0  0  0  0  0  0  0
   -0.7145   -1.2375    0.0000 C   0  0  0  0  0  0  0  0  0  0  0  0
   -0.7145   -0.4125    0.0000 Cl  0  0  0  0  0  0  0  0  0  0  0  0
    0.0000   -1.6500    0.0000 C   0  0  0  0  0  0  0  0  0  0  0  0
    0.7145   -1.2375    0.0000 H   0  0  0  0  0  0  0  0  0  0  0  0
    0.3442   -3.6247    0.0000 H   0  0  0  0  0  0  0  0  0  0  0  0
    1.0847   -3.6247    0.0000 H   0  0  0  0  0  0  0  0  0  0  0  0
    1.4289   -1.6500    0.0000 C   0  0  0  0  0  0  0  0  0  0  0  0
    1.4289   -0.8250    0.0000 H   0  0  0  0  0  0  0  0  0  0  0  0
    0.7145   -2.0625    0.0000 H   0  0  0  0  0  0  0  0  0  0  0  0
    2.1434   -1.2375    0.0000 C   0  0  0  0  0  0  0  0  0  0  0  0
    2.7754   -0.7072    0.0000 H   0  0  0  0  0  0  0  0  0  0  0  0
    2.2867   -0.4250    0.0000 H   0  0  0  0  0  0  0  0  0  0  0  0
  1  2  2  0  0  0  0
  2  3  1  0  0  0  0
  3  4  1  0  0  0  0
  3  5  1  0  0  0  0
  3  6  1  0  0  0  0
  2  7  1  0  0  0  0
  7  8  1  0  0  0  0
  8  9  1  0  0  0  0
  8 10  1  0  0  0  0
  8 11  1  0  0  0  0
 11 12  1  0  0  0  0
 11 13  1  0  0  0  0
 11 14  1  0  0  0  0
 14 15  1  0  0  0  0
 15 16  1  0  0  0  0
 16 17  2  0  0  0  0
 17 18  1  0  0  0  0
 17 19  1  0  0  0  0
 19 20  1  0  0  0  0
 19 21  2  0  0  0  0
 21 22  1  0  0  0  0
 21 23  1  0  0  0  0
 23 24  1  0  0  0  0
 23 25  2  0  0  0  0
 16 25  1  0  0  0  0
 25 26  1  0  0  0  0
 15 27  1  0  0  0  0
 15 28  1  0  0  0  0
 14 29  1  0  0  0  0
 29 30  1  0  0  0  0
 29 31  1  0  0  0  0
 29 32  1  0  0  0  0
  7 32  1  0  0  0  0
 32 33  1  0  0  0  0
 32 34  1  0  0  0  0
M  END
> <Potency>
1.88943429591092

> <pIC50>
5.723668205847767

> <Outcome>
Active

> <is_active>
1

$$$$

  Mrv1921 08232120312D          

 38 40  0  0  0  0            999 V2000
    2.1434   -3.7125    0.0000 C   0  0  0  0  0  0  0  0  0  0  0  0
    1.4289   -4.1250    0.0000 C   0  0  0  0  0  0  0  0  0  0  0  0
    1.4289   -4.9500    0.0000 C   0  0  0  0  0  0  0  0  0  0  0  0
    2.1434   -5.3625    0.0000 N   0  0  0  0  0  0  0  0  0  0  0  0
    2.0954   -6.1861    0.0000 H   0  0  0  0  0  0  0  0  0  0  0  0
    2.8807   -5.7328    0.0000 H   0  0  0  0  0  0  0  0  0  0  0  0
    0.7145   -5.3625    0.0000 C   0  0  0  0  0  0  0  0  0  0  0  0
    0.7145   -6.1875    0.0000 H   0  0  0  0  0  0  0  0  0  0  0  0
    0.0000   -4.9500    0.0000 N   0  0  0  0  0  0  0  0  0  0  0  0
    0.0000   -4.1250    0.0000 C   0  0  0  0  0  0  0  0  0  0  0  0
   -0.7145   -3.7125    0.0000 H   0  0  0  0  0  0  0  0  0  0  0  0
    0.7145   -3.7125    0.0000 C   0  0  0  0  0  0  0  0  0  0  0  0
    0.7145   -2.8875    0.0000 N   0  0  0  0  0  0  0  0  0  0  0  0
    1.4289   -2.4750    0.0000 C   0  0  0  0  0  0  0  0  0  0  0  0
    2.1434   -2.8875    0.0000 O   0  0  0  0  0  0  0  0  0  0  0  0
    1.4289   -1.6500    0.0000 C   0  0  0  0  0  0  0  0  0  0  0  0
    0.7145   -1.2375    0.0000 C   0  0  0  0  0  0  0  0  0  0  0  0
   -0.1091   -1.2855    0.0000 H   0  0  0  0  0  0  0  0  0  0  0  0
    0.2611   -1.9268    0.0000 H   0  0  0  0  0  0  0  0  0  0  0  0
    0.7145   -0.4125    0.0000 C   0  0  0  0  0  0  0  0  0  0  0  0
    0.2611    0.2768    0.0000 H   0  0  0  0  0  0  0  0  0  0  0  0
   -0.1091   -0.3645    0.0000 H   0  0  0  0  0  0  0  0  0  0  0  0
    1.4289    0.0000    0.0000 O   0  0  0  0  0  0  0  0  0  0  0  0
    2.1434   -0.4125    0.0000 C   0  0  0  0  0  0  0  0  0  0  0  0
    2.8579    0.0000    0.0000 C   0  0  0  0  0  0  0  0  0  0  0  0
    3.5724   -0.4125    0.0000 C   0  0  0  0  0  0  0  0  0  0  0  0
    3.5724   -1.2375    0.0000 C   0  0  0  0  0  0  0  0  0  0  0  0
    4.2868   -1.6500    0.0000 Cl  0  0  0  0  0  0  0  0  0  0  0  0
    2.8579   -1.6500    0.0000 C   0  0  0  0  0  0  0  0  0  0  0  0
    3.2704   -2.3645    0.0000 H   0  0  0  0  0  0  0  0  0  0  0  0
    2.1434   -1.2375    0.0000 C   0  0  0  0  0  0  0  0  0  0  0  0
    4.2868   -0.0000    0.0000 H   0  0  0  0  0  0  0  0  0  0  0  0
    2.8579    0.8250    0.0000 H   0  0  0  0  0  0  0  0  0  0  0  0
    2.1434   -2.0625    0.0000 H   0  0  0  0  0  0  0  0  0  0  0  0
    0.0000   -2.4750    0.0000 H   0  0  0  0  0  0  0  0  0  0  0  0
    2.1434   -4.5375    0.0000 H   0  0  0  0  0  0  0  0  0  0  0  0
    2.8579   -4.1250    0.0000 H   0  0  0  0  0  0  0  0  0  0  0  0
    2.8579   -3.3000    0.0000 H   0  0  0  0  0  0  0  0  0  0  0  0
  1  2  1  0  0  0  0
  2  3  2  0  0  0  0
  3  4  1  0  0  0  0
  4  5  1  0  0  0  0
  4  6  1  0  0  0  0
  3  7  1  0  0  0  0
  7  8  1  0  0  0  0
  7  9  2  0  0  0  0
  9 10  1  0  0  0  0
 10 11  1  0  0  0  0
 10 12  2  0  0  0  0
  2 12  1  0  0  0  0
 12 13  1  0  0  0  0
 13 14  1  0  0  0  0
 14 15  2  0  0  0  0
 14 16  1  0  0  0  0
 16 17  1  0  0  0  0
 17 18  1  0  0  0  0
 17 19  1  0  0  0  0
 17 20  1  0  0  0  0
 20 21  1  0  0  0  0
 20 22  1  0  0  0  0
 20 23  1  0  0  0  0
 23 24  1  0  0  0  0
 24 25  2  0  0  0  0
 25 26  1  0  0  0  0
 26 27  2  0  0  0  0
 27 28  1  0  0  0  0
 27 29  1  0  0  0  0
 29 30  1  0  0  0  0
 29 31  2  0  0  0  0
 16 31  1  0  0  0  0
 24 31  1  0  0  0  0
 26 32  1  0  0  0  0
 25 33  1  0  0  0  0
 16 34  1  0  0  0  0
 13 35  1  0  0  0  0
  1 36  1  0  0  0  0
  1 37  1  0  0  0  0
  1 38  1  0  0  0  0
M  END
> <Potency>
3.3816932125992

> <pIC50>
5.470865794171362

> <Outcome>
Active

> <is_active>
1

$$$$

  Mrv1921 08232120312D          

 64 67  0  0  0  0            999 V2000
   -3.2405    1.2668    0.0000 C   0  0  0  0  0  0  0  0  0  0  0  0
   -2.7004    0.6432    0.0000 C   0  0  0  0  0  0  0  0  0  0  0  0
   -2.9705   -0.1363    0.0000 C   0  0  0  0  0  0  0  0  0  0  0  0
   -3.7127   -0.4966    0.0000 H   0  0  0  0  0  0  0  0  0  0  0  0
   -2.8146   -0.9465    0.0000 H   0  0  0  0  0  0  0  0  0  0  0  0
   -2.1476   -0.1954    0.0000 H   0  0  0  0  0  0  0  0  0  0  0  0
   -1.8903    0.7991    0.0000 O   0  0  0  0  0  0  0  0  0  0  0  0
   -1.3502    0.1755    0.0000 C   0  0  0  0  0  0  0  0  0  0  0  0
   -0.5401    0.3314    0.0000 C   0  0  0  0  0  0  0  0  0  0  0  0
   -0.2700    1.1109    0.0000 H   0  0  0  0  0  0  0  0  0  0  0  0
    0.0000   -0.2923    0.0000 C   0  0  0  0  0  0  0  0  0  0  0  0
    0.5401   -0.9159    0.0000 H   0  0  0  0  0  0  0  0  0  0  0  0
   -0.2700   -1.0718    0.0000 C   0  0  0  0  0  0  0  0  0  0  0  0
    0.2700   -1.6954    0.0000 N   0  0  0  0  0  0  0  0  0  0  0  0
    0.0000   -2.4750    0.0000 C   0  0  0  0  0  0  0  0  0  0  0  0
    0.5401   -3.0986    0.0000 O   0  0  0  0  0  0  0  0  0  0  0  0
   -0.8101   -2.6309    0.0000 C   0  0  0  0  0  0  0  0  0  0  0  0
   -1.1602   -3.3780    0.0000 C   0  0  0  0  0  0  0  0  0  0  0  0
   -0.7616   -4.1003    0.0000 H   0  0  0  0  0  0  0  0  0  0  0  0
   -1.9788   -3.2759    0.0000 O   0  0  0  0  0  0  0  0  0  0  0  0
   -2.1348   -2.4658    0.0000 C   0  0  0  0  0  0  0  0  0  0  0  0
   -2.8818   -2.1157    0.0000 H   0  0  0  0  0  0  0  0  0  0  0  0
   -1.4125   -2.0671    0.0000 N   0  0  0  0  0  0  0  0  0  0  0  0
    1.0802   -1.5395    0.0000 C   0  0  0  0  0  0  0  0  0  0  0  0
    1.6203   -2.1632    0.0000 C   0  0  0  0  0  0  0  0  0  0  0  0
    1.3502   -2.9427    0.0000 O   0  0  0  0  0  0  0  0  0  0  0  0
    2.4304   -2.0073    0.0000 N   0  0  0  0  0  0  0  0  0  0  0  0
    2.9705   -2.6309    0.0000 C   0  0  0  0  0  0  0  0  0  0  0  0
    3.7806   -2.4750    0.0000 C   0  0  0  0  0  0  0  0  0  0  0  0
    4.3207   -3.0986    0.0000 C   0  0  0  0  0  0  0  0  0  0  0  0
    5.1308   -2.9427    0.0000 C   0  0  0  0  0  0  0  0  0  0  0  0
    5.4009   -2.1632    0.0000 H   0  0  0  0  0  0  0  0  0  0  0  0
    5.6709   -3.5664    0.0000 C   0  0  0  0  0  0  0  0  0  0  0  0
    6.4811   -3.4105    0.0000 H   0  0  0  0  0  0  0  0  0  0  0  0
    5.4009   -4.3459    0.0000 C   0  0  0  0  0  0  0  0  0  0  0  0
    5.9410   -4.9696    0.0000 H   0  0  0  0  0  0  0  0  0  0  0  0
    4.5908   -4.5018    0.0000 C   0  0  0  0  0  0  0  0  0  0  0  0
    4.3207   -5.2814    0.0000 F   0  0  0  0  0  0  0  0  0  0  0  0
    4.0507   -3.8782    0.0000 C   0  0  0  0  0  0  0  0  0  0  0  0
    3.2405   -4.0341    0.0000 H   0  0  0  0  0  0  0  0  0  0  0  0
    4.3718   -1.8996    0.0000 H   0  0  0  0  0  0  0  0  0  0  0  0
    3.6721   -1.6572    0.0000 H   0  0  0  0  0  0  0  0  0  0  0  0
    2.3793   -3.2063    0.0000 H   0  0  0  0  0  0  0  0  0  0  0  0
    3.0790   -3.4487    0.0000 H   0  0  0  0  0  0  0  0  0  0  0  0
    2.7004   -1.2277    0.0000 H   0  0  0  0  0  0  0  0  0  0  0  0
    1.3502   -0.7600    0.0000 C   0  0  0  0  0  0  0  0  0  0  0  0
    0.8101   -0.1363    0.0000 C   0  0  0  0  0  0  0  0  0  0  0  0
    0.2700    0.4873    0.0000 H   0  0  0  0  0  0  0  0  0  0  0  0
    1.0802    0.6432    0.0000 C   0  0  0  0  0  0  0  0  0  0  0  0
    0.9243    1.4533    0.0000 H   0  0  0  0  0  0  0  0  0  0  0  0
    1.8903    0.7991    0.0000 C   0  0  0  0  0  0  0  0  0  0  0  0
    2.1604    1.5787    0.0000 H   0  0  0  0  0  0  0  0  0  0  0  0
    2.4304    0.1755    0.0000 N   0  0  0  0  0  0  0  0  0  0  0  0
    2.1604   -0.6041    0.0000 C   0  0  0  0  0  0  0  0  0  0  0  0
    1.8903   -1.3836    0.0000 H   0  0  0  0  0  0  0  0  0  0  0  0
    0.8101   -2.3191    0.0000 H   0  0  0  0  0  0  0  0  0  0  0  0
   -1.0802   -1.2277    0.0000 C   0  0  0  0  0  0  0  0  0  0  0  0
   -1.8935   -1.3660    0.0000 H   0  0  0  0  0  0  0  0  0  0  0  0
   -1.6203   -0.6041    0.0000 C   0  0  0  0  0  0  0  0  0  0  0  0
   -0.8101   -0.4482    0.0000 H   0  0  0  0  0  0  0  0  0  0  0  0
   -3.5106    0.4873    0.0000 H   0  0  0  0  0  0  0  0  0  0  0  0
   -2.6169    1.8069    0.0000 H   0  0  0  0  0  0  0  0  0  0  0  0
   -3.7806    1.8905    0.0000 H   0  0  0  0  0  0  0  0  0  0  0  0
   -3.8642    0.7268    0.0000 H   0  0  0  0  0  0  0  0  0  0  0  0
  1  2  1  0  0  0  0
  2  3  1  0  0  0  0
  3  4  1  0  0  0  0
  3  5  1  0  0  0  0
  3  6  1  0  0  0  0
  2  7  1  0  0  0  0
  7  8  1  0  0  0  0
  8  9  2  0  0  0  0
  9 10  1  0  0  0  0
  9 11  1  0  0  0  0
 11 12  1  0  0  0  0
 11 13  2  0  0  0  0
 13 14  1  0  0  0  0
 14 15  1  0  0  0  0
 15 16  2  0  0  0  0
 15 17  1  0  0  0  0
 17 18  2  0  0  0  0
 18 19  1  0  0  0  0
 18 20  1  0  0  0  0
 20 21  1  0  0  0  0
 21 22  1  0  0  0  0
 21 23  2  0  0  0  0
 17 23  1  0  0  0  0
 14 24  1  0  0  0  0
 24 25  1  0  0  0  0
 25 26  2  0  0  0  0
 25 27  1  0  0  0  0
 27 28  1  0  0  0  0
 28 29  1  0  0  0  0
 29 30  1  0  0  0  0
 30 31  2  0  0  0  0
 31 32  1  0  0  0  0
 31 33  1  0  0  0  0
 33 34  1  0  0  0  0
 33 35  2  0  0  0  0
 35 36  1  0  0  0  0
 35 37  1  0  0  0  0
 37 38  1  0  0  0  0
 37 39  2  0  0  0  0
 30 39  1  0  0  0  0
 39 40  1  0  0  0  0
 29 41  1  0  0  0  0
 29 42  1  0  0  0  0
 28 43  1  0  0  0  0
 28 44  1  0  0  0  0
 27 45  1  0  0  0  0
 24 46  1  0  0  0  0
 46 47  2  0  0  0  0
 47 48  1  0  0  0  0
 47 49  1  0  0  0  0
 49 50  1  0  0  0  0
 49 51  2  0  0  0  0
 51 52  1  0  0  0  0
 51 53  1  0  0  0  0
 53 54  2  0  0  0  0
 46 54  1  0  0  0  0
 54 55  1  0  0  0  0
 24 56  1  0  0  0  0
 13 57  1  0  0  0  0
 57 58  1  0  0  0  0
 57 59  2  0  0  0  0
  8 59  1  0  0  0  0
 59 60  1  0  0  0  0
  2 61  1  0  0  0  0
  1 62  1  0  0  0  0
  1 63  1  0  0  0  0
  1 64  1  0  0  0  0
M  END
> <Potency>
0.609229242009784

> <pIC50>
6.215219259409037

> <Outcome>
Active

> <is_active>
1

$$$$

  Mrv1921 08232120312D          

 37 39  0  0  0  0            999 V2000
   -2.1434   -5.3625    0.0000 C   0  0  0  0  0  0  0  0  0  0  0  0
   -1.4289   -4.9500    0.0000 C   0  0  0  0  0  0  0  0  0  0  0  0
   -1.4289   -4.1250    0.0000 C   0  0  0  0  0  0  0  0  0  0  0  0
   -2.1434   -3.7125    0.0000 H   0  0  0  0  0  0  0  0  0  0  0  0
   -0.7145   -3.7125    0.0000 C   0  0  0  0  0  0  0  0  0  0  0  0
   -0.7145   -2.8875    0.0000 H   0  0  0  0  0  0  0  0  0  0  0  0
    0.0000   -4.1250    0.0000 C   0  0  0  0  0  0  0  0  0  0  0  0
    0.7145   -3.7125    0.0000 C   0  0  0  0  0  0  0  0  0  0  0  0
    0.7145   -2.8875    0.0000 C   0  0  0  0  0  0  0  0  0  0  0  0
    0.0000   -2.4750    0.0000 O   0  0  0  0  0  0  0  0  0  0  0  0
    1.4289   -2.4750    0.0000 N   0  0  0  0  0  0  0  0  0  0  0  0
    1.4289   -1.6500    0.0000 C   0  0  0  0  0  0  0  0  0  0  0  0
    0.7145   -1.2375    0.0000 C   0  0  0  0  0  0  0  0  0  0  0  0
    0.0000   -1.6500    0.0000 H   0  0  0  0  0  0  0  0  0  0  0  0
    0.7145   -0.4125    0.0000 N   0  0  0  0  0  0  0  0  0  0  0  0
    1.4289    0.0000    0.0000 C   0  0  0  0  0  0  0  0  0  0  0  0
    1.4289    0.8250    0.0000 H   0  0  0  0  0  0  0  0  0  0  0  0
    2.1434   -0.4125    0.0000 C   0  0  0  0  0  0  0  0  0  0  0  0
    2.8579    0.0000    0.0000 C   0  0  0  0  0  0  0  0  0  0  0  0
    3.5724   -0.4125    0.0000 C   0  0  0  0  0  0  0  0  0  0  0  0
    3.5724   -1.2375    0.0000 C   0  0  0  0  0  0  0  0  0  0  0  0
    2.8579   -1.6500    0.0000 C   0  0  0  0  0  0  0  0  0  0  0  0
    2.8579   -2.4750    0.0000 H   0  0  0  0  0  0  0  0  0  0  0  0
    2.1434   -1.2375    0.0000 C   0  0  0  0  0  0  0  0  0  0  0  0
    4.2868   -1.6500    0.0000 H   0  0  0  0  0  0  0  0  0  0  0  0
    4.2868   -0.0000    0.0000 H   0  0  0  0  0  0  0  0  0  0  0  0
    2.8579    0.8250    0.0000 H   0  0  0  0  0  0  0  0  0  0  0  0
    2.1434   -2.8875    0.0000 H   0  0  0  0  0  0  0  0  0  0  0  0
    1.1678   -4.4018    0.0000 H   0  0  0  0  0  0  0  0  0  0  0  0
    1.5381   -3.7605    0.0000 H   0  0  0  0  0  0  0  0  0  0  0  0
    0.0000   -4.9500    0.0000 C   0  0  0  0  0  0  0  0  0  0  0  0
    0.7145   -5.3625    0.0000 H   0  0  0  0  0  0  0  0  0  0  0  0
   -0.7145   -5.3625    0.0000 C   0  0  0  0  0  0  0  0  0  0  0  0
   -0.7145   -6.1875    0.0000 Cl  0  0  0  0  0  0  0  0  0  0  0  0
   -2.5559   -4.6480    0.0000 H   0  0  0  0  0  0  0  0  0  0  0  0
   -2.8579   -5.7750    0.0000 H   0  0  0  0  0  0  0  0  0  0  0  0
   -1.7309   -6.0770    0.0000 H   0  0  0  0  0  0  0  0  0  0  0  0
  1  2  1  0  0  0  0
  2  3  2  0  0  0  0
  3  4  1  0  0  0  0
  3  5  1  0  0  0  0
  5  6  1  0  0  0  0
  5  7  2  0  0  0  0
  7  8  1  0  0  0  0
  8  9  1  0  0  0  0
  9 10  2  0  0  0  0
  9 11  1  0  0  0  0
 11 12  1  0  0  0  0
 12 13  2  0  0  0  0
 13 14  1  0  0  0  0
 13 15  1  0  0  0  0
 15 16  2  0  0  0  0
 16 17  1  0  0  0  0
 16 18  1  0  0  0  0
 18 19  2  0  0  0  0
 19 20  1  0  0  0  0
 20 21  2  0  0  0  0
 21 22  1  0  0  0  0
 22 23  1  0  0  0  0
 22 24  2  0  0  0  0
 12 24  1  0  0  0  0
 18 24  1  0  0  0  0
 21 25  1  0  0  0  0
 20 26  1  0  0  0  0
 19 27  1  0  0  0  0
 11 28  1  0  0  0  0
  8 29  1  0  0  0  0
  8 30  1  0  0  0  0
  7 31  1  0  0  0  0
 31 32  1  0  0  0  0
 31 33  2  0  0  0  0
  2 33  1  0  0  0  0
 33 34  1  0  0  0  0
  1 35  1  0  0  0  0
  1 36  1  0  0  0  0
  1 37  1  0  0  0  0
M  END
> <Potency>
1.09296002954038

> <pIC50>
5.961395720271216

> <Outcome>
Active

> <is_active>
1

$$$$

  Mrv1921 08232120312D          

 38 41  0  0  0  0            999 V2000
    2.1434   -2.8875    0.0000 O   0  0  0  0  0  0  0  0  0  0  0  0
    1.4289   -2.4750    0.0000 C   0  0  0  0  0  0  0  0  0  0  0  0
    0.7145   -2.8875    0.0000 N   0  0  0  0  0  0  0  0  0  0  0  0
    0.7145   -3.7125    0.0000 C   0  0  0  0  0  0  0  0  0  0  0  0
    1.4289   -4.1250    0.0000 C   0  0  0  0  0  0  0  0  0  0  0  0
    2.1434   -3.7125    0.0000 H   0  0  0  0  0  0  0  0  0  0  0  0
    1.4289   -4.9500    0.0000 N   0  0  0  0  0  0  0  0  0  0  0  0
    0.7145   -5.3625    0.0000 C   0  0  0  0  0  0  0  0  0  0  0  0
    0.7145   -6.1875    0.0000 H   0  0  0  0  0  0  0  0  0  0  0  0
    0.0000   -4.9500    0.0000 C   0  0  0  0  0  0  0  0  0  0  0  0
   -0.7145   -5.3625    0.0000 C   0  0  0  0  0  0  0  0  0  0  0  0
   -1.4289   -4.9500    0.0000 C   0  0  0  0  0  0  0  0  0  0  0  0
   -1.4289   -4.1250    0.0000 N   0  0  0  0  0  0  0  0  0  0  0  0
   -0.7145   -3.7125    0.0000 C   0  0  0  0  0  0  0  0  0  0  0  0
   -0.7145   -2.8875    0.0000 H   0  0  0  0  0  0  0  0  0  0  0  0
    0.0000   -4.1250    0.0000 C   0  0  0  0  0  0  0  0  0  0  0  0
   -2.1434   -5.3625    0.0000 H   0  0  0  0  0  0  0  0  0  0  0  0
   -0.7145   -6.1875    0.0000 H   0  0  0  0  0  0  0  0  0  0  0  0
    0.0000   -2.4750    0.0000 H   0  0  0  0  0  0  0  0  0  0  0  0
    1.4289   -1.6500    0.0000 C   0  0  0  0  0  0  0  0  0  0  0  0
    0.7145   -1.2375    0.0000 C   0  0  0  0  0  0  0  0  0  0  0  0
   -0.1091   -1.2855    0.0000 H   0  0  0  0  0  0  0  0  0  0  0  0
    0.2611   -1.9268    0.0000 H   0  0  0  0  0  0  0  0  0  0  0  0
    0.7145   -0.4125    0.0000 C   0  0  0  0  0  0  0  0  0  0  0  0
    0.2611    0.2768    0.0000 H   0  0  0  0  0  0  0  0  0  0  0  0
   -0.1091   -0.3645    0.0000 H   0  0  0  0  0  0  0  0  0  0  0  0
    1.4289    0.0000    0.0000 O   0  0  0  0  0  0  0  0  0  0  0  0
    2.1434   -0.4125    0.0000 C   0  0  0  0  0  0  0  0  0  0  0  0
    2.8579    0.0000    0.0000 C   0  0  0  0  0  0  0  0  0  0  0  0
    3.5724   -0.4125    0.0000 C   0  0  0  0  0  0  0  0  0  0  0  0
    3.5724   -1.2375    0.0000 C   0  0  0  0  0  0  0  0  0  0  0  0
    4.2868   -1.6500    0.0000 Cl  0  0  0  0  0  0  0  0  0  0  0  0
    2.8579   -1.6500    0.0000 C   0  0  0  0  0  0  0  0  0  0  0  0
    3.2704   -2.3645    0.0000 H   0  0  0  0  0  0  0  0  0  0  0  0
    2.1434   -1.2375    0.0000 C   0  0  0  0  0  0  0  0  0  0  0  0
    4.2868   -0.0000    0.0000 H   0  0  0  0  0  0  0  0  0  0  0  0
    2.8579    0.8250    0.0000 H   0  0  0  0  0  0  0  0  0  0  0  0
    2.1434   -2.0625    0.0000 H   0  0  0  0  0  0  0  0  0  0  0  0
  1  2  2  0  0  0  0
  2  3  1  0  0  0  0
  3  4  1  0  0  0  0
  4  5  1  0  0  0  0
  5  6  1  0  0  0  0
  5  7  2  0  0  0  0
  7  8  1  0  0  0  0
  8  9  1  0  0  0  0
  8 10  2  0  0  0  0
 10 11  1  0  0  0  0
 11 12  2  0  0  0  0
 12 13  1  0  0  0  0
 13 14  2  0  0  0  0
 14 15  1  0  0  0  0
 14 16  1  0  0  0  0
  4 16  2  0  0  0  0
 10 16  1  0  0  0  0
 12 17  1  0  0  0  0
 11 18  1  0  0  0  0
  3 19  1  0  0  0  0
  2 20  1  0  0  0  0
 20 21  1  0  0  0  0
 21 22  1  0  0  0  0
 21 23  1  0  0  0  0
 21 24  1  0  0  0  0
 24 25  1  0  0  0  0
 24 26  1  0  0  0  0
 24 27  1  0  0  0  0
 27 28  1  0  0  0  0
 28 29  2  0  0  0  0
 29 30  1  0  0  0  0
 30 31  2  0  0  0  0
 31 32  1  0  0  0  0
 31 33  1  0  0  0  0
 33 34  1  0  0  0  0
 33 35  2  0  0  0  0
 20 35  1  0  0  0  0
 28 35  1  0  0  0  0
 30 36  1  0  0  0  0
 29 37  1  0  0  0  0
 20 38  1  0  0  0  0
M  END
> <Potency>
0.991406537761962

> <pIC50>
6.003748221496449

> <Outcome>
Active

> <is_active>
1

$$$$

  Mrv1921 08232120312D          

 40 43  0  0  0  0            999 V2000
    2.1434    0.4125    0.0000 N   0  0  0  0  0  0  0  0  0  0  0  0
    2.8579    0.8250    0.0000 C   0  0  0  0  0  0  0  0  0  0  0  0
    3.5724    1.2375    0.0000 C   0  0  0  0  0  0  0  0  0  0  0  0
    3.5724    2.0625    0.0000 C   0  0  0  0  0  0  0  0  0  0  0  0
    2.8579    2.4750    0.0000 H   0  0  0  0  0  0  0  0  0  0  0  0
    4.2868    2.4750    0.0000 C   0  0  0  0  0  0  0  0  0  0  0  0
    4.2868    3.3000    0.0000 H   0  0  0  0  0  0  0  0  0  0  0  0
    5.0013    2.0625    0.0000 C   0  0  0  0  0  0  0  0  0  0  0  0
    5.7158    2.4750    0.0000 C   0  0  0  0  0  0  0  0  0  0  0  0
    6.4302    2.0625    0.0000 N   0  0  0  0  0  0  0  0  0  0  0  0
    6.4302    1.2375    0.0000 C   0  0  0  0  0  0  0  0  0  0  0  0
    5.7158    0.8250    0.0000 C   0  0  0  0  0  0  0  0  0  0  0  0
    5.7158    0.0000    0.0000 N   0  0  0  0  0  0  0  0  0  0  0  0
    5.0013   -0.4125    0.0000 C   0  0  0  0  0  0  0  0  0  0  0  0
    4.2868    0.0000    0.0000 O   0  0  0  0  0  0  0  0  0  0  0  0
    5.0013   -1.2375    0.0000 C   0  0  0  0  0  0  0  0  0  0  0  0
    5.7158   -1.6500    0.0000 C   0  0  0  0  0  0  0  0  0  0  0  0
    6.5394   -1.6020    0.0000 H   0  0  0  0  0  0  0  0  0  0  0  0
    6.1691   -0.9607    0.0000 H   0  0  0  0  0  0  0  0  0  0  0  0
    5.7158   -2.4750    0.0000 C   0  0  0  0  0  0  0  0  0  0  0  0
    6.1691   -3.1643    0.0000 H   0  0  0  0  0  0  0  0  0  0  0  0
    6.5394   -2.5230    0.0000 H   0  0  0  0  0  0  0  0  0  0  0  0
    5.0013   -2.8875    0.0000 O   0  0  0  0  0  0  0  0  0  0  0  0
    4.2868   -2.4750    0.0000 C   0  0  0  0  0  0  0  0  0  0  0  0
    3.5724   -2.8875    0.0000 C   0  0  0  0  0  0  0  0  0  0  0  0
    2.8579   -2.4750    0.0000 C   0  0  0  0  0  0  0  0  0  0  0  0
    2.8579   -1.6500    0.0000 C   0  0  0  0  0  0  0  0  0  0  0  0
    2.1434   -1.2375    0.0000 Cl  0  0  0  0  0  0  0  0  0  0  0  0
    3.5724   -1.2375    0.0000 C   0  0  0  0  0  0  0  0  0  0  0  0
    3.1599   -0.5230    0.0000 H   0  0  0  0  0  0  0  0  0  0  0  0
    4.2868   -1.6500    0.0000 C   0  0  0  0  0  0  0  0  0  0  0  0
    2.1434   -2.8875    0.0000 H   0  0  0  0  0  0  0  0  0  0  0  0
    3.5724   -3.7125    0.0000 H   0  0  0  0  0  0  0  0  0  0  0  0
    4.2868   -0.8250    0.0000 H   0  0  0  0  0  0  0  0  0  0  0  0
    6.4302   -0.4125    0.0000 H   0  0  0  0  0  0  0  0  0  0  0  0
    5.0013    1.2375    0.0000 C   0  0  0  0  0  0  0  0  0  0  0  0
    4.2868    0.8250    0.0000 C   0  0  0  0  0  0  0  0  0  0  0  0
    3.5724    0.4125    0.0000 H   0  0  0  0  0  0  0  0  0  0  0  0
    7.1447    0.8250    0.0000 H   0  0  0  0  0  0  0  0  0  0  0  0
    5.7158    3.3000    0.0000 H   0  0  0  0  0  0  0  0  0  0  0  0
  1  2  3  0  0  0  0
  2  3  1  0  0  0  0
  3  4  2  0  0  0  0
  4  5  1  0  0  0  0
  4  6  1  0  0  0  0
  6  7  1  0  0  0  0
  6  8  2  0  0  0  0
  8  9  1  0  0  0  0
  9 10  2  0  0  0  0
 10 11  1  0  0  0  0
 11 12  2  0  0  0  0
 12 13  1  0  0  0  0
 13 14  1  0  0  0  0
 14 15  2  0  0  0  0
 14 16  1  0  0  0  0
 16 17  1  0  0  0  0
 17 18  1  0  0  0  0
 17 19  1  0  0  0  0
 17 20  1  0  0  0  0
 20 21  1  0  0  0  0
 20 22  1  0  0  0  0
 20 23  1  0  0  0  0
 23 24  1  0  0  0  0
 24 25  2  0  0  0  0
 25 26  1  0  0  0  0
 26 27  2  0  0  0  0
 27 28  1  0  0  0  0
 27 29  1  0  0  0  0
 29 30  1  0  0  0  0
 29 31  2  0  0  0  0
 16 31  1  0  0  0  0
 24 31  1  0  0  0  0
 26 32  1  0  0  0  0
 25 33  1  0  0  0  0
 16 34  1  0  0  0  0
 13 35  1  0  0  0  0
 12 36  1  0  0  0  0
  8 36  1  0  0  0  0
 36 37  2  0  0  0  0
  3 37  1  0  0  0  0
 37 38  1  0  0  0  0
 11 39  1  0  0  0  0
  9 40  1  0  0  0  0
M  END
> <Potency>
2.7500508472819

> <pIC50>
5.560659276173446

> <Outcome>
Active

> <is_active>
1

$$$$

  Mrv1921 08232120312D          

 38 41  0  0  0  0            999 V2000
    2.1434   -2.8875    0.0000 O   0  0  0  0  0  0  0  0  0  0  0  0
    1.4289   -2.4750    0.0000 C   0  0  0  0  0  0  0  0  0  0  0  0
    0.7145   -2.8875    0.0000 N   0  0  0  0  0  0  0  0  0  0  0  0
    0.7145   -3.7125    0.0000 C   0  0  0  0  0  0  0  0  0  0  0  0
    1.4289   -4.1250    0.0000 C   0  0  0  0  0  0  0  0  0  0  0  0
    2.1434   -3.7125    0.0000 H   0  0  0  0  0  0  0  0  0  0  0  0
    1.4289   -4.9500    0.0000 N   0  0  0  0  0  0  0  0  0  0  0  0
    0.7145   -5.3625    0.0000 C   0  0  0  0  0  0  0  0  0  0  0  0
    0.7145   -6.1875    0.0000 H   0  0  0  0  0  0  0  0  0  0  0  0
    0.0000   -4.9500    0.0000 C   0  0  0  0  0  0  0  0  0  0  0  0
   -0.7145   -5.3625    0.0000 C   0  0  0  0  0  0  0  0  0  0  0  0
   -1.4289   -4.9500    0.0000 N   0  0  0  0  0  0  0  0  0  0  0  0
   -1.4289   -4.1250    0.0000 C   0  0  0  0  0  0  0  0  0  0  0  0
   -0.7145   -3.7125    0.0000 C   0  0  0  0  0  0  0  0  0  0  0  0
   -0.7145   -2.8875    0.0000 H   0  0  0  0  0  0  0  0  0  0  0  0
    0.0000   -4.1250    0.0000 C   0  0  0  0  0  0  0  0  0  0  0  0
   -2.1434   -3.7125    0.0000 H   0  0  0  0  0  0  0  0  0  0  0  0
   -0.7145   -6.1875    0.0000 H   0  0  0  0  0  0  0  0  0  0  0  0
    0.0000   -2.4750    0.0000 H   0  0  0  0  0  0  0  0  0  0  0  0
    1.4289   -1.6500    0.0000 C   0  0  0  0  0  0  0  0  0  0  0  0
    0.7145   -1.2375    0.0000 C   0  0  0  0  0  0  0  0  0  0  0  0
   -0.1091   -1.2855    0.0000 H   0  0  0  0  0  0  0  0  0  0  0  0
    0.2611   -1.9268    0.0000 H   0  0  0  0  0  0  0  0  0  0  0  0
    0.7145   -0.4125    0.0000 C   0  0  0  0  0  0  0  0  0  0  0  0
    0.2611    0.2768    0.0000 H   0  0  0  0  0  0  0  0  0  0  0  0
   -0.1091   -0.3645    0.0000 H   0  0  0  0  0  0  0  0  0  0  0  0
    1.4289    0.0000    0.0000 O   0  0  0  0  0  0  0  0  0  0  0  0
    2.1434   -0.4125    0.0000 C   0  0  0  0  0  0  0  0  0  0  0  0
    2.8579    0.0000    0.0000 C   0  0  0  0  0  0  0  0  0  0  0  0
    3.5724   -0.4125    0.0000 C   0  0  0  0  0  0  0  0  0  0  0  0
    3.5724   -1.2375    0.0000 C   0  0  0  0  0  0  0  0  0  0  0  0
    4.2868   -1.6500    0.0000 Cl  0  0  0  0  0  0  0  0  0  0  0  0
    2.8579   -1.6500    0.0000 C   0  0  0  0  0  0  0  0  0  0  0  0
    3.2704   -2.3645    0.0000 H   0  0  0  0  0  0  0  0  0  0  0  0
    2.1434   -1.2375    0.0000 C   0  0  0  0  0  0  0  0  0  0  0  0
    4.2868   -0.0000    0.0000 H   0  0  0  0  0  0  0  0  0  0  0  0
    2.8579    0.8250    0.0000 H   0  0  0  0  0  0  0  0  0  0  0  0
    2.1434   -2.0625    0.0000 H   0  0  0  0  0  0  0  0  0  0  0  0
  1  2  2  0  0  0  0
  2  3  1  0  0  0  0
  3  4  1  0  0  0  0
  4  5  2  0  0  0  0
  5  6  1  0  0  0  0
  5  7  1  0  0  0  0
  7  8  2  0  0  0  0
  8  9  1  0  0  0  0
  8 10  1  0  0  0  0
 10 11  2  0  0  0  0
 11 12  1  0  0  0  0
 12 13  2  0  0  0  0
 13 14  1  0  0  0  0
 14 15  1  0  0  0  0
 14 16  2  0  0  0  0
  4 16  1  0  0  0  0
 10 16  1  0  0  0  0
 13 17  1  0  0  0  0
 11 18  1  0  0  0  0
  3 19  1  0  0  0  0
  2 20  1  0  0  0  0
 20 21  1  0  0  0  0
 21 22  1  0  0  0  0
 21 23  1  0  0  0  0
 21 24  1  0  0  0  0
 24 25  1  0  0  0  0
 24 26  1  0  0  0  0
 24 27  1  0  0  0  0
 27 28  1  0  0  0  0
 28 29  2  0  0  0  0
 29 30  1  0  0  0  0
 30 31  2  0  0  0  0
 31 32  1  0  0  0  0
 31 33  1  0  0  0  0
 33 34  1  0  0  0  0
 33 35  2  0  0  0  0
 20 35  1  0  0  0  0
 28 35  1  0  0  0  0
 30 36  1  0  0  0  0
 29 37  1  0  0  0  0
 20 38  1  0  0  0  0
M  END
> <Potency>
3.09876271931265

> <pIC50>
5.508811677596946

> <Outcome>
Active

> <is_active>
1

$$$$

  Mrv1921 08232120312D          

 57 61  0  0  0  0            999 V2000
   -0.4752   -1.7084    0.0000 O   0  0  0  0  0  0  0  0  0  0  0  0
    0.0768   -2.3215    0.0000 C   0  0  0  0  0  0  0  0  0  0  0  0
    0.8838   -2.1500    0.0000 C   0  0  0  0  0  0  0  0  0  0  0  0
    1.1387   -1.3654    0.0000 N   0  0  0  0  0  0  0  0  0  0  0  0
    0.6538   -0.6979    0.0000 N   0  0  0  0  0  0  0  0  0  0  0  0
    1.1387   -0.0305    0.0000 N   0  0  0  0  0  0  0  0  0  0  0  0
    1.9233   -0.2854    0.0000 C   0  0  0  0  0  0  0  0  0  0  0  0
    2.6378    0.1271    0.0000 C   0  0  0  0  0  0  0  0  0  0  0  0
    3.3523   -0.2854    0.0000 C   0  0  0  0  0  0  0  0  0  0  0  0
    3.3523   -1.1104    0.0000 C   0  0  0  0  0  0  0  0  0  0  0  0
    2.6378   -1.5229    0.0000 C   0  0  0  0  0  0  0  0  0  0  0  0
    2.6378   -2.3479    0.0000 H   0  0  0  0  0  0  0  0  0  0  0  0
    1.9233   -1.1104    0.0000 C   0  0  0  0  0  0  0  0  0  0  0  0
    4.0668   -1.5229    0.0000 H   0  0  0  0  0  0  0  0  0  0  0  0
    4.0668    0.1271    0.0000 H   0  0  0  0  0  0  0  0  0  0  0  0
    2.6378    0.9521    0.0000 H   0  0  0  0  0  0  0  0  0  0  0  0
    1.1019   -2.9456    0.0000 H   0  0  0  0  0  0  0  0  0  0  0  0
    1.6523   -2.4501    0.0000 H   0  0  0  0  0  0  0  0  0  0  0  0
   -0.1781   -3.1062    0.0000 N   0  0  0  0  0  0  0  0  0  0  0  0
    0.3739   -3.7192    0.0000 C   0  0  0  0  0  0  0  0  0  0  0  0
    0.1190   -4.5039    0.0000 C   0  0  0  0  0  0  0  0  0  0  0  0
    0.6710   -5.1170    0.0000 C   0  0  0  0  0  0  0  0  0  0  0  0
    1.4780   -4.9454    0.0000 H   0  0  0  0  0  0  0  0  0  0  0  0
    0.4161   -5.9016    0.0000 C   0  0  0  0  0  0  0  0  0  0  0  0
    0.9681   -6.5147    0.0000 H   0  0  0  0  0  0  0  0  0  0  0  0
   -0.3909   -6.0731    0.0000 C   0  0  0  0  0  0  0  0  0  0  0  0
   -0.6459   -6.8577    0.0000 H   0  0  0  0  0  0  0  0  0  0  0  0
   -0.9429   -5.4600    0.0000 C   0  0  0  0  0  0  0  0  0  0  0  0
   -1.7499   -5.6315    0.0000 Cl  0  0  0  0  0  0  0  0  0  0  0  0
   -0.6880   -4.6754    0.0000 C   0  0  0  0  0  0  0  0  0  0  0  0
   -0.4331   -3.8908    0.0000 H   0  0  0  0  0  0  0  0  0  0  0  0
    1.1720   -3.9281    0.0000 H   0  0  0  0  0  0  0  0  0  0  0  0
    1.0181   -3.2038    0.0000 H   0  0  0  0  0  0  0  0  0  0  0  0
   -0.9851   -3.2777    0.0000 C   0  0  0  0  0  0  0  0  0  0  0  0
   -1.2400   -4.0623    0.0000 C   0  0  0  0  0  0  0  0  0  0  0  0
   -1.4950   -4.8469    0.0000 H   0  0  0  0  0  0  0  0  0  0  0  0
   -2.0470   -4.2338    0.0000 C   0  0  0  0  0  0  0  0  0  0  0  0
   -2.6601   -4.7859    0.0000 H   0  0  0  0  0  0  0  0  0  0  0  0
   -2.5990   -3.6207    0.0000 C   0  0  0  0  0  0  0  0  0  0  0  0
   -3.4060   -3.7923    0.0000 N   0  0  0  0  0  0  0  0  0  0  0  0
   -3.6610   -4.5769    0.0000 C   0  0  0  0  0  0  0  0  0  0  0  0
   -3.4428   -5.3725    0.0000 H   0  0  0  0  0  0  0  0  0  0  0  0
   -2.8925   -4.8770    0.0000 H   0  0  0  0  0  0  0  0  0  0  0  0
   -4.4679   -4.7484    0.0000 C   0  0  0  0  0  0  0  0  0  0  0  0
   -5.0479   -5.3352    0.0000 H   0  0  0  0  0  0  0  0  0  0  0  0
   -4.3436   -5.5640    0.0000 H   0  0  0  0  0  0  0  0  0  0  0  0
   -5.0200   -4.1353    0.0000 O   0  0  0  0  0  0  0  0  0  0  0  0
   -4.7650   -3.3507    0.0000 C   0  0  0  0  0  0  0  0  0  0  0  0
   -4.9832   -2.5551    0.0000 H   0  0  0  0  0  0  0  0  0  0  0  0
   -5.5335   -3.0506    0.0000 H   0  0  0  0  0  0  0  0  0  0  0  0
   -3.9580   -3.1792    0.0000 C   0  0  0  0  0  0  0  0  0  0  0  0
   -3.3781   -2.5924    0.0000 H   0  0  0  0  0  0  0  0  0  0  0  0
   -4.0824   -2.3636    0.0000 H   0  0  0  0  0  0  0  0  0  0  0  0
   -2.3441   -2.8361    0.0000 C   0  0  0  0  0  0  0  0  0  0  0  0
   -2.8961   -2.2230    0.0000 H   0  0  0  0  0  0  0  0  0  0  0  0
   -1.5371   -2.6646    0.0000 C   0  0  0  0  0  0  0  0  0  0  0  0
   -1.2822   -1.8800    0.0000 H   0  0  0  0  0  0  0  0  0  0  0  0
  1  2  2  0  0  0  0
  2  3  1  0  0  0  0
  3  4  1  0  0  0  0
  4  5  1  0  0  0  0
  5  6  2  0  0  0  0
  6  7  1  0  0  0  0
  7  8  2  0  0  0  0
  8  9  1  0  0  0  0
  9 10  2  0  0  0  0
 10 11  1  0  0  0  0
 11 12  1  0  0  0  0
 11 13  2  0  0  0  0
  4 13  1  0  0  0  0
  7 13  1  0  0  0  0
 10 14  1  0  0  0  0
  9 15  1  0  0  0  0
  8 16  1  0  0  0  0
  3 17  1  0  0  0  0
  3 18  1  0  0  0  0
  2 19  1  0  0  0  0
 19 20  1  0  0  0  0
 20 21  1  0  0  0  0
 21 22  2  0  0  0  0
 22 23  1  0  0  0  0
 22 24  1  0  0  0  0
 24 25  1  0  0  0  0
 24 26  2  0  0  0  0
 26 27  1  0  0  0  0
 26 28  1  0  0  0  0
 28 29  1  0  0  0  0
 28 30  2  0  0  0  0
 21 30  1  0  0  0  0
 30 31  1  0  0  0  0
 20 32  1  0  0  0  0
 20 33  1  0  0  0  0
 19 34  1  0  0  0  0
 34 35  2  0  0  0  0
 35 36  1  0  0  0  0
 35 37  1  0  0  0  0
 37 38  1  0  0  0  0
 37 39  2  0  0  0  0
 39 40  1  0  0  0  0
 40 41  1  0  0  0  0
 41 42  1  0  0  0  0
 41 43  1  0  0  0  0
 41 44  1  0  0  0  0
 44 45  1  0  0  0  0
 44 46  1  0  0  0  0
 44 47  1  0  0  0  0
 47 48  1  0  0  0  0
 48 49  1  0  0  0  0
 48 50  1  0  0  0  0
 48 51  1  0  0  0  0
 40 51  1  0  0  0  0
 51 52  1  0  0  0  0
 51 53  1  0  0  0  0
 39 54  1  0  0  0  0
 54 55  1  0  0  0  0
 54 56  2  0  0  0  0
 34 56  1  0  0  0  0
 56 57  1  0  0  0  0
M  END
> <Potency>
3.70094298650442

> <pIC50>
5.4316876052148695

> <Outcome>
Active

> <is_active>
1

$$$$

  Mrv1921 08232120312D          

 67 70  0  0  0  0            999 V2000
   -2.4304    1.4228    0.0000 C   0  0  0  0  0  0  0  0  0  0  0  0
   -1.8903    0.7991    0.0000 C   0  0  0  0  0  0  0  0  0  0  0  0
   -2.5140    0.2590    0.0000 C   0  0  0  0  0  0  0  0  0  0  0  0
   -3.2968   -0.0013    0.0000 H   0  0  0  0  0  0  0  0  0  0  0  0
   -2.5730   -0.5639    0.0000 H   0  0  0  0  0  0  0  0  0  0  0  0
   -1.7763   -0.1105    0.0000 H   0  0  0  0  0  0  0  0  0  0  0  0
   -1.2667    1.3392    0.0000 C   0  0  0  0  0  0  0  0  0  0  0  0
   -1.0064    0.5564    0.0000 H   0  0  0  0  0  0  0  0  0  0  0  0
   -0.4438    1.2801    0.0000 H   0  0  0  0  0  0  0  0  0  0  0  0
   -0.8972    2.0768    0.0000 H   0  0  0  0  0  0  0  0  0  0  0  0
   -1.3502    0.1755    0.0000 C   0  0  0  0  0  0  0  0  0  0  0  0
   -0.5401    0.3314    0.0000 C   0  0  0  0  0  0  0  0  0  0  0  0
    0.2465    0.5801    0.0000 H   0  0  0  0  0  0  0  0  0  0  0  0
    0.0000   -0.2923    0.0000 C   0  0  0  0  0  0  0  0  0  0  0  0
    0.5401   -0.9159    0.0000 H   0  0  0  0  0  0  0  0  0  0  0  0
   -0.2700   -1.0718    0.0000 C   0  0  0  0  0  0  0  0  0  0  0  0
    0.2700   -1.6954    0.0000 N   0  0  0  0  0  0  0  0  0  0  0  0
    0.0000   -2.4750    0.0000 C   0  0  0  0  0  0  0  0  0  0  0  0
    0.5401   -3.0986    0.0000 O   0  0  0  0  0  0  0  0  0  0  0  0
   -0.8101   -2.6309    0.0000 C   0  0  0  0  0  0  0  0  0  0  0  0
   -1.1602   -3.3780    0.0000 C   0  0  0  0  0  0  0  0  0  0  0  0
   -0.7616   -4.1003    0.0000 H   0  0  0  0  0  0  0  0  0  0  0  0
   -1.9788   -3.2759    0.0000 N   0  0  0  0  0  0  0  0  0  0  0  0
   -2.5426   -3.8782    0.0000 H   0  0  0  0  0  0  0  0  0  0  0  0
   -2.1348   -2.4658    0.0000 C   0  0  0  0  0  0  0  0  0  0  0  0
   -2.8818   -2.1157    0.0000 H   0  0  0  0  0  0  0  0  0  0  0  0
   -1.4125   -2.0671    0.0000 N   0  0  0  0  0  0  0  0  0  0  0  0
    1.0802   -1.5395    0.0000 C   0  0  0  0  0  0  0  0  0  0  0  0
    1.6203   -2.1632    0.0000 C   0  0  0  0  0  0  0  0  0  0  0  0
    1.3502   -2.9427    0.0000 O   0  0  0  0  0  0  0  0  0  0  0  0
    2.4304   -2.0073    0.0000 N   0  0  0  0  0  0  0  0  0  0  0  0
    2.9705   -2.6309    0.0000 C   0  0  0  0  0  0  0  0  0  0  0  0
    3.7806   -2.4750    0.0000 C   0  0  0  0  0  0  0  0  0  0  0  0
    4.3207   -3.0986    0.0000 C   0  0  0  0  0  0  0  0  0  0  0  0
    5.1308   -2.9427    0.0000 C   0  0  0  0  0  0  0  0  0  0  0  0
    5.4009   -2.1632    0.0000 H   0  0  0  0  0  0  0  0  0  0  0  0
    5.6709   -3.5664    0.0000 C   0  0  0  0  0  0  0  0  0  0  0  0
    6.4811   -3.4105    0.0000 H   0  0  0  0  0  0  0  0  0  0  0  0
    5.4009   -4.3459    0.0000 C   0  0  0  0  0  0  0  0  0  0  0  0
    5.9410   -4.9696    0.0000 H   0  0  0  0  0  0  0  0  0  0  0  0
    4.5908   -4.5018    0.0000 C   0  0  0  0  0  0  0  0  0  0  0  0
    4.3207   -5.2814    0.0000 F   0  0  0  0  0  0  0  0  0  0  0  0
    4.0507   -3.8782    0.0000 C   0  0  0  0  0  0  0  0  0  0  0  0
    3.2405   -4.0341    0.0000 H   0  0  0  0  0  0  0  0  0  0  0  0
    4.3718   -1.8996    0.0000 H   0  0  0  0  0  0  0  0  0  0  0  0
    3.6721   -1.6572    0.0000 H   0  0  0  0  0  0  0  0  0  0  0  0
    2.3793   -3.2063    0.0000 H   0  0  0  0  0  0  0  0  0  0  0  0
    3.0790   -3.4487    0.0000 H   0  0  0  0  0  0  0  0  0  0  0  0
    2.7004   -1.2277    0.0000 H   0  0  0  0  0  0  0  0  0  0  0  0
    1.3502   -0.7600    0.0000 C   0  0  0  0  0  0  0  0  0  0  0  0
    0.8101   -0.1363    0.0000 C   0  0  0  0  0  0  0  0  0  0  0  0
    1.6203    0.0196    0.0000 H   0  0  0  0  0  0  0  0  0  0  0  0
    1.0802    0.6432    0.0000 C   0  0  0  0  0  0  0  0  0  0  0  0
    0.9709    1.4609    0.0000 H   0  0  0  0  0  0  0  0  0  0  0  0
    1.8903    0.7991    0.0000 C   0  0  0  0  0  0  0  0  0  0  0  0
    2.1604    1.5787    0.0000 H   0  0  0  0  0  0  0  0  0  0  0  0
    2.4304    0.1755    0.0000 N   0  0  0  0  0  0  0  0  0  0  0  0
    2.1604   -0.6041    0.0000 C   0  0  0  0  0  0  0  0  0  0  0  0
    1.8903   -1.3836    0.0000 H   0  0  0  0  0  0  0  0  0  0  0  0
    0.8101   -2.3191    0.0000 H   0  0  0  0  0  0  0  0  0  0  0  0
   -1.0802   -1.2277    0.0000 C   0  0  0  0  0  0  0  0  0  0  0  0
   -1.8935   -1.3660    0.0000 H   0  0  0  0  0  0  0  0  0  0  0  0
   -1.6203   -0.6041    0.0000 C   0  0  0  0  0  0  0  0  0  0  0  0
   -0.8101   -0.4482    0.0000 H   0  0  0  0  0  0  0  0  0  0  0  0
   -1.8068    1.9628    0.0000 H   0  0  0  0  0  0  0  0  0  0  0  0
   -2.9705    2.0464    0.0000 H   0  0  0  0  0  0  0  0  0  0  0  0
   -3.0540    0.8827    0.0000 H   0  0  0  0  0  0  0  0  0  0  0  0
  1  2  1  0  0  0  0
  2  3  1  0  0  0  0
  3  4  1  0  0  0  0
  3  5  1  0  0  0  0
  3  6  1  0  0  0  0
  2  7  1  0  0  0  0
  7  8  1  0  0  0  0
  7  9  1  0  0  0  0
  7 10  1  0  0  0  0
  2 11  1  0  0  0  0
 11 12  2  0  0  0  0
 12 13  1  0  0  0  0
 12 14  1  0  0  0  0
 14 15  1  0  0  0  0
 14 16  2  0  0  0  0
 16 17  1  0  0  0  0
 17 18  1  0  0  0  0
 18 19  2  0  0  0  0
 18 20  1  0  0  0  0
 20 21  2  0  0  0  0
 21 22  1  0  0  0  0
 21 23  1  0  0  0  0
 23 24  1  0  0  0  0
 23 25  1  0  0  0  0
 25 26  1  0  0  0  0
 25 27  2  0  0  0  0
 20 27  1  0  0  0  0
 17 28  1  0  0  0  0
 28 29  1  0  0  0  0
 29 30  2  0  0  0  0
 29 31  1  0  0  0  0
 31 32  1  0  0  0  0
 32 33  1  0  0  0  0
 33 34  1  0  0  0  0
 34 35  2  0  0  0  0
 35 36  1  0  0  0  0
 35 37  1  0  0  0  0
 37 38  1  0  0  0  0
 37 39  2  0  0  0  0
 39 40  1  0  0  0  0
 39 41  1  0  0  0  0
 41 42  1  0  0  0  0
 41 43  2  0  0  0  0
 34 43  1  0  0  0  0
 43 44  1  0  0  0  0
 33 45  1  0  0  0  0
 33 46  1  0  0  0  0
 32 47  1  0  0  0  0
 32 48  1  0  0  0  0
 31 49  1  0  0  0  0
 28 50  1  0  0  0  0
 50 51  2  0  0  0  0
 51 52  1  0  0  0  0
 51 53  1  0  0  0  0
 53 54  1  0  0  0  0
 53 55  2  0  0  0  0
 55 56  1  0  0  0  0
 55 57  1  0  0  0  0
 57 58  2  0  0  0  0
 50 58  1  0  0  0  0
 58 59  1  0  0  0  0
 28 60  1  0  0  0  0
 16 61  1  0  0  0  0
 61 62  1  0  0  0  0
 61 63  2  0  0  0  0
 11 63  1  0  0  0  0
 63 64  1  0  0  0  0
  1 65  1  0  0  0  0
  1 66  1  0  0  0  0
  1 67  1  0  0  0  0
M  END
> <Potency>
0.291719378179007

> <pIC50>
6.53503472083821

> <Outcome>
Active

> <is_active>
1

$$$$

  Mrv1921 08232120312D          

 47 49  0  0  0  0            999 V2000
    3.5724   -1.2375    0.0000 C   0  0  0  0  0  0  0  0  0  0  0  0
    4.2868   -0.8250    0.0000 O   0  0  0  0  0  0  0  0  0  0  0  0
    4.2868    0.0000    0.0000 C   0  0  0  0  0  0  0  0  0  0  0  0
    3.5724    0.4125    0.0000 C   0  0  0  0  0  0  0  0  0  0  0  0
    2.8579    0.0000    0.0000 H   0  0  0  0  0  0  0  0  0  0  0  0
    3.5724    1.2375    0.0000 C   0  0  0  0  0  0  0  0  0  0  0  0
    2.8579    1.6500    0.0000 H   0  0  0  0  0  0  0  0  0  0  0  0
    4.2868    1.6500    0.0000 C   0  0  0  0  0  0  0  0  0  0  0  0
    4.2868    2.4750    0.0000 H   0  0  0  0  0  0  0  0  0  0  0  0
    5.0013    1.2375    0.0000 C   0  0  0  0  0  0  0  0  0  0  0  0
    5.7158    1.6500    0.0000 H   0  0  0  0  0  0  0  0  0  0  0  0
    5.0013    0.4125    0.0000 C   0  0  0  0  0  0  0  0  0  0  0  0
    5.7158    0.0000    0.0000 O   0  0  0  0  0  0  0  0  0  0  0  0
    6.4302    0.4125    0.0000 C   0  0  0  0  0  0  0  0  0  0  0  0
    7.1447    0.0000    0.0000 C   0  0  0  0  0  0  0  0  0  0  0  0
    7.8592    0.4125    0.0000 N   0  0  0  0  0  0  0  0  0  0  0  0
    8.5737    0.0000    0.0000 C   0  0  0  0  0  0  0  0  0  0  0  0
    8.5737   -0.8250    0.0000 O   0  0  0  0  0  0  0  0  0  0  0  0
    9.2881    0.4125    0.0000 C   0  0  0  0  0  0  0  0  0  0  0  0
    9.2881    1.2375    0.0000 C   0  0  0  0  0  0  0  0  0  0  0  0
    8.5737    1.6500    0.0000 H   0  0  0  0  0  0  0  0  0  0  0  0
   10.0026    1.6500    0.0000 C   0  0  0  0  0  0  0  0  0  0  0  0
   10.0026    2.4750    0.0000 O   0  0  0  0  0  0  0  0  0  0  0  0
   10.7171    1.2375    0.0000 N   0  0  0  0  0  0  0  0  0  0  0  0
   11.4315    1.6500    0.0000 H   0  0  0  0  0  0  0  0  0  0  0  0
   10.7171    0.4125    0.0000 C   0  0  0  0  0  0  0  0  0  0  0  0
   11.4315    0.0000    0.0000 C   0  0  0  0  0  0  0  0  0  0  0  0
   11.4315   -0.8250    0.0000 C   0  0  0  0  0  0  0  0  0  0  0  0
   10.7171   -1.2375    0.0000 C   0  0  0  0  0  0  0  0  0  0  0  0
   10.0026   -0.8250    0.0000 C   0  0  0  0  0  0  0  0  0  0  0  0
    9.2881   -1.2375    0.0000 O   0  0  0  0  0  0  0  0  0  0  0  0
    9.2881   -2.0625    0.0000 C   0  0  0  0  0  0  0  0  0  0  0  0
    8.4631   -2.0625    0.0000 H   0  0  0  0  0  0  0  0  0  0  0  0
    9.2881   -2.8875    0.0000 H   0  0  0  0  0  0  0  0  0  0  0  0
   10.1131   -2.0625    0.0000 H   0  0  0  0  0  0  0  0  0  0  0  0
   10.0026    0.0000    0.0000 C   0  0  0  0  0  0  0  0  0  0  0  0
   10.7171   -2.0625    0.0000 H   0  0  0  0  0  0  0  0  0  0  0  0
   12.1460   -1.2375    0.0000 H   0  0  0  0  0  0  0  0  0  0  0  0
   12.1460    0.4125    0.0000 H   0  0  0  0  0  0  0  0  0  0  0  0
    7.8592    1.2375    0.0000 H   0  0  0  0  0  0  0  0  0  0  0  0
    6.7745   -0.7372    0.0000 H   0  0  0  0  0  0  0  0  0  0  0  0
    7.5150   -0.7372    0.0000 H   0  0  0  0  0  0  0  0  0  0  0  0
    6.8005    1.1497    0.0000 H   0  0  0  0  0  0  0  0  0  0  0  0
    6.0600    1.1497    0.0000 H   0  0  0  0  0  0  0  0  0  0  0  0
    3.1599   -0.5230    0.0000 H   0  0  0  0  0  0  0  0  0  0  0  0
    2.8579   -1.6500    0.0000 H   0  0  0  0  0  0  0  0  0  0  0  0
    3.9849   -1.9520    0.0000 H   0  0  0  0  0  0  0  0  0  0  0  0
  1  2  1  0  0  0  0
  2  3  1  0  0  0  0
  3  4  2  0  0  0  0
  4  5  1  0  0  0  0
  4  6  1  0  0  0  0
  6  7  1  0  0  0  0
  6  8  2  0  0  0  0
  8  9  1  0  0  0  0
  8 10  1  0  0  0  0
 10 11  1  0  0  0  0
 10 12  2  0  0  0  0
  3 12  1  0  0  0  0
 12 13  1  0  0  0  0
 13 14  1  0  0  0  0
 14 15  1  0  0  0  0
 15 16  1  0  0  0  0
 16 17  1  0  0  0  0
 17 18  2  0  0  0  0
 17 19  1  0  0  0  0
 19 20  4  0  0  0  0
 20 21  1  0  0  0  0
 20 22  4  0  0  0  0
 22 23  2  0  0  0  0
 22 24  4  0  0  0  0
 24 25  1  0  0  0  0
 24 26  4  0  0  0  0
 26 27  4  0  0  0  0
 27 28  4  0  0  0  0
 28 29  4  0  0  0  0
 29 30  4  0  0  0  0
 30 31  1  0  0  0  0
 31 32  1  0  0  0  0
 32 33  1  0  0  0  0
 32 34  1  0  0  0  0
 32 35  1  0  0  0  0
 30 36  4  0  0  0  0
 19 36  4  0  0  0  0
 26 36  4  0  0  0  0
 29 37  1  0  0  0  0
 28 38  1  0  0  0  0
 27 39  1  0  0  0  0
 16 40  1  0  0  0  0
 15 41  1  0  0  0  0
 15 42  1  0  0  0  0
 14 43  1  0  0  0  0
 14 44  1  0  0  0  0
  1 45  1  0  0  0  0
  1 46  1  0  0  0  0
  1 47  1  0  0  0  0
M  END
> <Potency>
2.02891778482379

> <pIC50>
5.692735550956192

> <Outcome>
Active

> <is_active>
1

$$$$

  Mrv1921 08232120312D          

 43 45  0  0  0  0            999 V2000
    3.5724   -1.2375    0.0000 C   0  0  0  0  0  0  0  0  0  0  0  0
    4.2868   -0.8250    0.0000 O   0  0  0  0  0  0  0  0  0  0  0  0
    4.2868    0.0000    0.0000 C   0  0  0  0  0  0  0  0  0  0  0  0
    3.5724    0.4125    0.0000 C   0  0  0  0  0  0  0  0  0  0  0  0
    2.8579    0.0000    0.0000 H   0  0  0  0  0  0  0  0  0  0  0  0
    3.5724    1.2375    0.0000 C   0  0  0  0  0  0  0  0  0  0  0  0
    2.8579    1.6500    0.0000 H   0  0  0  0  0  0  0  0  0  0  0  0
    4.2868    1.6500    0.0000 C   0  0  0  0  0  0  0  0  0  0  0  0
    4.2868    2.4750    0.0000 H   0  0  0  0  0  0  0  0  0  0  0  0
    5.0013    1.2375    0.0000 C   0  0  0  0  0  0  0  0  0  0  0  0
    5.7158    1.6500    0.0000 H   0  0  0  0  0  0  0  0  0  0  0  0
    5.0013    0.4125    0.0000 C   0  0  0  0  0  0  0  0  0  0  0  0
    5.7158    0.0000    0.0000 O   0  0  0  0  0  0  0  0  0  0  0  0
    6.4302    0.4125    0.0000 C   0  0  0  0  0  0  0  0  0  0  0  0
    7.1447    0.0000    0.0000 C   0  0  0  0  0  0  0  0  0  0  0  0
    7.8592    0.4125    0.0000 N   0  0  0  0  0  0  0  0  0  0  0  0
    8.5737    0.0000    0.0000 C   0  0  0  0  0  0  0  0  0  0  0  0
    8.5737   -0.8250    0.0000 O   0  0  0  0  0  0  0  0  0  0  0  0
    9.2881    0.4125    0.0000 C   0  0  0  0  0  0  0  0  0  0  0  0
    9.2881    1.2375    0.0000 C   0  0  0  0  0  0  0  0  0  0  0  0
    8.5737    1.6500    0.0000 H   0  0  0  0  0  0  0  0  0  0  0  0
   10.0026    1.6500    0.0000 C   0  0  0  0  0  0  0  0  0  0  0  0
   10.0026    2.4750    0.0000 O   0  0  0  0  0  0  0  0  0  0  0  0
   10.7171    1.2375    0.0000 N   0  0  0  0  0  0  0  0  0  0  0  0
   11.4315    1.6500    0.0000 H   0  0  0  0  0  0  0  0  0  0  0  0
   10.7171    0.4125    0.0000 C   0  0  0  0  0  0  0  0  0  0  0  0
   11.4315    0.0000    0.0000 C   0  0  0  0  0  0  0  0  0  0  0  0
   11.4315   -0.8250    0.0000 C   0  0  0  0  0  0  0  0  0  0  0  0
   10.7171   -1.2375    0.0000 C   0  0  0  0  0  0  0  0  0  0  0  0
   10.0026   -0.8250    0.0000 C   0  0  0  0  0  0  0  0  0  0  0  0
    9.2881   -1.2375    0.0000 H   0  0  0  0  0  0  0  0  0  0  0  0
   10.0026    0.0000    0.0000 C   0  0  0  0  0  0  0  0  0  0  0  0
   10.7171   -2.0625    0.0000 H   0  0  0  0  0  0  0  0  0  0  0  0
   12.1460   -1.2375    0.0000 H   0  0  0  0  0  0  0  0  0  0  0  0
   12.1460    0.4125    0.0000 H   0  0  0  0  0  0  0  0  0  0  0  0
    7.8592    1.2375    0.0000 H   0  0  0  0  0  0  0  0  0  0  0  0
    6.7745   -0.7372    0.0000 H   0  0  0  0  0  0  0  0  0  0  0  0
    7.5150   -0.7372    0.0000 H   0  0  0  0  0  0  0  0  0  0  0  0
    6.8005    1.1497    0.0000 H   0  0  0  0  0  0  0  0  0  0  0  0
    6.0600    1.1497    0.0000 H   0  0  0  0  0  0  0  0  0  0  0  0
    3.1599   -0.5230    0.0000 H   0  0  0  0  0  0  0  0  0  0  0  0
    2.8579   -1.6500    0.0000 H   0  0  0  0  0  0  0  0  0  0  0  0
    3.9849   -1.9520    0.0000 H   0  0  0  0  0  0  0  0  0  0  0  0
  1  2  1  0  0  0  0
  2  3  1  0  0  0  0
  3  4  2  0  0  0  0
  4  5  1  0  0  0  0
  4  6  1  0  0  0  0
  6  7  1  0  0  0  0
  6  8  2  0  0  0  0
  8  9  1  0  0  0  0
  8 10  1  0  0  0  0
 10 11  1  0  0  0  0
 10 12  2  0  0  0  0
  3 12  1  0  0  0  0
 12 13  1  0  0  0  0
 13 14  1  0  0  0  0
 14 15  1  0  0  0  0
 15 16  1  0  0  0  0
 16 17  1  0  0  0  0
 17 18  2  0  0  0  0
 17 19  1  0  0  0  0
 19 20  4  0  0  0  0
 20 21  1  0  0  0  0
 20 22  4  0  0  0  0
 22 23  2  0  0  0  0
 22 24  4  0  0  0  0
 24 25  1  0  0  0  0
 24 26  4  0  0  0  0
 26 27  4  0  0  0  0
 27 28  4  0  0  0  0
 28 29  4  0  0  0  0
 29 30  4  0  0  0  0
 30 31  1  0  0  0  0
 30 32  4  0  0  0  0
 19 32  4  0  0  0  0
 26 32  4  0  0  0  0
 29 33  1  0  0  0  0
 28 34  1  0  0  0  0
 27 35  1  0  0  0  0
 16 36  1  0  0  0  0
 15 37  1  0  0  0  0
 15 38  1  0  0  0  0
 14 39  1  0  0  0  0
 14 40  1  0  0  0  0
  1 41  1  0  0  0  0
  1 42  1  0  0  0  0
  1 43  1  0  0  0  0
M  END
> <Potency>
7.23400398630335

> <pIC50>
5.140621256256031

> <Outcome>
Active

> <is_active>
1

$$$$

  Mrv1921 08232120312D          

 54 56  0  0  0  0            999 V2000
    1.4289   -4.1250    0.0000 O   0  0  0  0  0  0  0  0  0  0  0  0
    0.7145   -3.7125    0.0000 C   0  0  0  0  0  0  0  0  0  0  0  0
    0.7145   -2.8875    0.0000 C   0  0  0  0  0  0  0  0  0  0  0  0
    1.4289   -2.4750    0.0000 Cl  0  0  0  0  0  0  0  0  0  0  0  0
    0.2611   -2.1982    0.0000 H   0  0  0  0  0  0  0  0  0  0  0  0
   -0.1091   -2.8395    0.0000 H   0  0  0  0  0  0  0  0  0  0  0  0
    0.0000   -4.1250    0.0000 N   0  0  0  0  0  0  0  0  0  0  0  0
    0.0000   -4.9500    0.0000 C   0  0  0  0  0  0  0  0  0  0  0  0
    0.4533   -5.6393    0.0000 H   0  0  0  0  0  0  0  0  0  0  0  0
    0.8236   -4.9980    0.0000 H   0  0  0  0  0  0  0  0  0  0  0  0
   -0.7145   -5.3625    0.0000 C   0  0  0  0  0  0  0  0  0  0  0  0
   -1.0847   -6.0997    0.0000 H   0  0  0  0  0  0  0  0  0  0  0  0
   -0.3442   -6.0997    0.0000 H   0  0  0  0  0  0  0  0  0  0  0  0
   -1.4289   -4.9500    0.0000 N   0  0  0  0  0  0  0  0  0  0  0  0
   -2.1434   -5.3625    0.0000 C   0  0  0  0  0  0  0  0  0  0  0  0
   -2.1434   -6.1875    0.0000 C   0  0  0  0  0  0  0  0  0  0  0  0
   -1.4289   -6.6000    0.0000 C   0  0  0  0  0  0  0  0  0  0  0  0
   -0.6411   -6.8449    0.0000 H   0  0  0  0  0  0  0  0  0  0  0  0
   -1.4289   -7.4250    0.0000 C   0  0  0  0  0  0  0  0  0  0  0  0
   -0.7145   -7.8375    0.0000 Cl  0  0  0  0  0  0  0  0  0  0  0  0
   -2.1434   -7.8375    0.0000 C   0  0  0  0  0  0  0  0  0  0  0  0
   -2.1434   -8.6625    0.0000 H   0  0  0  0  0  0  0  0  0  0  0  0
   -2.8579   -7.4250    0.0000 C   0  0  0  0  0  0  0  0  0  0  0  0
   -3.5724   -7.8375    0.0000 H   0  0  0  0  0  0  0  0  0  0  0  0
   -2.8579   -6.6000    0.0000 C   0  0  0  0  0  0  0  0  0  0  0  0
   -3.5724   -6.1875    0.0000 C   0  0  0  0  0  0  0  0  0  0  0  0
   -3.5724   -5.3625    0.0000 N   0  0  0  0  0  0  0  0  0  0  0  0
   -4.2868   -4.9500    0.0000 C   0  0  0  0  0  0  0  0  0  0  0  0
   -4.2868   -4.1250    0.0000 O   0  0  0  0  0  0  0  0  0  0  0  0
   -5.0013   -5.3625    0.0000 N   0  0  0  0  0  0  0  0  0  0  0  0
   -5.0013   -6.1875    0.0000 C   0  0  0  0  0  0  0  0  0  0  0  0
   -4.8194   -6.9922    0.0000 H   0  0  0  0  0  0  0  0  0  0  0  0
   -5.7158   -5.7750    0.0000 H   0  0  0  0  0  0  0  0  0  0  0  0
   -5.7158   -6.6000    0.0000 C   0  0  0  0  0  0  0  0  0  0  0  0
   -6.0860   -7.3372    0.0000 H   0  0  0  0  0  0  0  0  0  0  0  0
   -5.3455   -7.3372    0.0000 H   0  0  0  0  0  0  0  0  0  0  0  0
   -6.4302   -6.1875    0.0000 O   0  0  0  0  0  0  0  0  0  0  0  0
   -6.4302   -5.3625    0.0000 C   0  0  0  0  0  0  0  0  0  0  0  0
   -6.8836   -4.6732    0.0000 H   0  0  0  0  0  0  0  0  0  0  0  0
   -7.2538   -5.3145    0.0000 H   0  0  0  0  0  0  0  0  0  0  0  0
   -5.7158   -4.9500    0.0000 C   0  0  0  0  0  0  0  0  0  0  0  0
   -5.3455   -4.2128    0.0000 H   0  0  0  0  0  0  0  0  0  0  0  0
   -6.0860   -4.2128    0.0000 H   0  0  0  0  0  0  0  0  0  0  0  0
   -3.3905   -4.5578    0.0000 H   0  0  0  0  0  0  0  0  0  0  0  0
   -4.3960   -6.2355    0.0000 H   0  0  0  0  0  0  0  0  0  0  0  0
   -4.0257   -6.8768    0.0000 H   0  0  0  0  0  0  0  0  0  0  0  0
   -2.5968   -4.6732    0.0000 H   0  0  0  0  0  0  0  0  0  0  0  0
   -2.9670   -5.3145    0.0000 H   0  0  0  0  0  0  0  0  0  0  0  0
   -1.4289   -4.1250    0.0000 C   0  0  0  0  0  0  0  0  0  0  0  0
   -1.8823   -3.4357    0.0000 H   0  0  0  0  0  0  0  0  0  0  0  0
   -2.2525   -4.0770    0.0000 H   0  0  0  0  0  0  0  0  0  0  0  0
   -0.7145   -3.7125    0.0000 C   0  0  0  0  0  0  0  0  0  0  0  0
   -0.3442   -2.9753    0.0000 H   0  0  0  0  0  0  0  0  0  0  0  0
   -1.0847   -2.9753    0.0000 H   0  0  0  0  0  0  0  0  0  0  0  0
  1  2  2  0  0  0  0
  2  3  1  0  0  0  0
  3  4  1  0  0  0  0
  3  5  1  0  0  0  0
  3  6  1  0  0  0  0
  2  7  1  0  0  0  0
  7  8  1  0  0  0  0
  8  9  1  0  0  0  0
  8 10  1  0  0  0  0
  8 11  1  0  0  0  0
 11 12  1  0  0  0  0
 11 13  1  0  0  0  0
 11 14  1  0  0  0  0
 14 15  1  0  0  0  0
 15 16  1  0  0  0  0
 16 17  2  0  0  0  0
 17 18  1  0  0  0  0
 17 19  1  0  0  0  0
 19 20  1  0  0  0  0
 19 21  2  0  0  0  0
 21 22  1  0  0  0  0
 21 23  1  0  0  0  0
 23 24  1  0  0  0  0
 23 25  2  0  0  0  0
 16 25  1  0  0  0  0
 25 26  1  0  0  0  0
 26 27  1  0  0  0  0
 27 28  1  0  0  0  0
 28 29  2  0  0  0  0
 28 30  1  0  0  0  0
 30 31  1  0  0  0  0
 31 32  1  0  0  0  0
 31 33  1  0  0  0  0
 31 34  1  0  0  0  0
 34 35  1  0  0  0  0
 34 36  1  0  0  0  0
 34 37  1  0  0  0  0
 37 38  1  0  0  0  0
 38 39  1  0  0  0  0
 38 40  1  0  0  0  0
 38 41  1  0  0  0  0
 30 41  1  0  0  0  0
 41 42  1  0  0  0  0
 41 43  1  0  0  0  0
 27 44  1  0  0  0  0
 26 45  1  0  0  0  0
 26 46  1  0  0  0  0
 15 47  1  0  0  0  0
 15 48  1  0  0  0  0
 14 49  1  0  0  0  0
 49 50  1  0  0  0  0
 49 51  1  0  0  0  0
 49 52  1  0  0  0  0
  7 52  1  0  0  0  0
 52 53  1  0  0  0  0
 52 54  1  0  0  0  0
M  END
> <Potency>
3.79513106116713

> <pIC50>
5.420773221571177

> <Outcome>
Active

> <is_active>
1

$$$$

  Mrv1921 08232120312D          

 38 39  0  0  0  0            999 V2000
    2.1434   -0.4125    0.0000 C   0  0  0  0  0  0  0  0  0  0  0  0
    2.1434   -1.2375    0.0000 C   0  0  0  0  0  0  0  0  0  0  0  0
    2.8579   -1.6500    0.0000 C   0  0  0  0  0  0  0  0  0  0  0  0
    3.5724   -1.2375    0.0000 H   0  0  0  0  0  0  0  0  0  0  0  0
    2.8579   -2.4750    0.0000 C   0  0  0  0  0  0  0  0  0  0  0  0
    3.5724   -2.8875    0.0000 Cl  0  0  0  0  0  0  0  0  0  0  0  0
    2.1434   -2.8875    0.0000 C   0  0  0  0  0  0  0  0  0  0  0  0
    2.1434   -3.7125    0.0000 H   0  0  0  0  0  0  0  0  0  0  0  0
    1.4289   -2.4750    0.0000 C   0  0  0  0  0  0  0  0  0  0  0  0
    0.7145   -2.8875    0.0000 C   0  0  0  0  0  0  0  0  0  0  0  0
    0.0000   -2.4750    0.0000 C   0  0  0  0  0  0  0  0  0  0  0  0
   -0.7145   -2.8875    0.0000 C   0  0  0  0  0  0  0  0  0  0  0  0
   -1.0847   -3.6247    0.0000 H   0  0  0  0  0  0  0  0  0  0  0  0
   -0.3442   -3.6247    0.0000 H   0  0  0  0  0  0  0  0  0  0  0  0
   -1.4289   -2.4750    0.0000 C   0  0  0  0  0  0  0  0  0  0  0  0
   -2.2525   -2.5230    0.0000 H   0  0  0  0  0  0  0  0  0  0  0  0
   -1.8823   -3.1643    0.0000 H   0  0  0  0  0  0  0  0  0  0  0  0
   -1.4289   -1.6500    0.0000 N   0  0  0  0  0  0  0  0  0  0  0  0
   -2.1434   -1.2375    0.0000 C   0  0  0  0  0  0  0  0  0  0  0  0
   -2.8579   -1.6500    0.0000 O   0  0  0  0  0  0  0  0  0  0  0  0
   -2.1434   -0.4125    0.0000 C   0  0  0  0  0  0  0  0  0  0  0  0
   -2.8579    0.0000    0.0000 Cl  0  0  0  0  0  0  0  0  0  0  0  0
   -1.3198   -0.3645    0.0000 H   0  0  0  0  0  0  0  0  0  0  0  0
   -1.6901    0.2768    0.0000 H   0  0  0  0  0  0  0  0  0  0  0  0
   -0.7145   -1.2375    0.0000 C   0  0  0  0  0  0  0  0  0  0  0  0
   -0.3442   -0.5003    0.0000 H   0  0  0  0  0  0  0  0  0  0  0  0
   -1.0847   -0.5003    0.0000 H   0  0  0  0  0  0  0  0  0  0  0  0
    0.0000   -1.6500    0.0000 C   0  0  0  0  0  0  0  0  0  0  0  0
    0.6320   -1.1197    0.0000 H   0  0  0  0  0  0  0  0  0  0  0  0
    0.1433   -0.8375    0.0000 H   0  0  0  0  0  0  0  0  0  0  0  0
    0.7145   -2.0625    0.0000 H   0  0  0  0  0  0  0  0  0  0  0  0
    0.3442   -3.6247    0.0000 H   0  0  0  0  0  0  0  0  0  0  0  0
    1.0847   -3.6247    0.0000 H   0  0  0  0  0  0  0  0  0  0  0  0
    1.4289   -1.6500    0.0000 C   0  0  0  0  0  0  0  0  0  0  0  0
    1.4551   -0.8254    0.0000 H   0  0  0  0  0  0  0  0  0  0  0  0
    2.9684   -0.4125    0.0000 H   0  0  0  0  0  0  0  0  0  0  0  0
    2.1434    0.4125    0.0000 H   0  0  0  0  0  0  0  0  0  0  0  0
    1.3184   -0.4125    0.0000 H   0  0  0  0  0  0  0  0  0  0  0  0
  1  2  1  0  0  0  0
  2  3  2  0  0  0  0
  3  4  1  0  0  0  0
  3  5  1  0  0  0  0
  5  6  1  0  0  0  0
  5  7  2  0  0  0  0
  7  8  1  0  0  0  0
  7  9  1  0  0  0  0
  9 10  1  0  0  0  0
 10 11  1  0  0  0  0
 11 12  1  0  0  0  0
 12 13  1  0  0  0  0
 12 14  1  0  0  0  0
 12 15  1  0  0  0  0
 15 16  1  0  0  0  0
 15 17  1  0  0  0  0
 15 18  1  0  0  0  0
 18 19  1  0  0  0  0
 19 20  2  0  0  0  0
 19 21  1  0  0  0  0
 21 22  1  0  0  0  0
 21 23  1  0  0  0  0
 21 24  1  0  0  0  0
 18 25  1  0  0  0  0
 25 26  1  0  0  0  0
 25 27  1  0  0  0  0
 25 28  1  0  0  0  0
 11 28  1  0  0  0  0
 28 29  1  0  0  0  0
 28 30  1  0  0  0  0
 11 31  1  0  0  0  0
 10 32  1  0  0  0  0
 10 33  1  0  0  0  0
  9 34  2  0  0  0  0
  2 34  1  0  0  0  0
 34 35  1  0  0  0  0
  1 36  1  0  0  0  0
  1 37  1  0  0  0  0
  1 38  1  0  0  0  0
M  END
> <Potency>
3.57437118025072

> <pIC50>
5.446800350217501

> <Outcome>
Active

> <is_active>
1

$$$$

  Mrv1921 08232120312D          

111111  0  0  0  0            999 V2000
  -13.6400   -1.9200    0.0000 C   0  0  0  0  0  0  0  0  0  0  0  0
  -12.8605   -1.6500    0.0000 C   0  0  0  0  0  0  0  0  0  0  0  0
  -12.0809   -1.3800    0.0000 C   0  0  0  0  0  0  0  0  0  0  0  0
  -11.4573   -1.9200    0.0000 C   0  0  0  0  0  0  0  0  0  0  0  0
  -10.6777   -1.6500    0.0000 C   0  0  0  0  0  0  0  0  0  0  0  0
  -10.0541   -2.1901    0.0000 C   0  0  0  0  0  0  0  0  0  0  0  0
  -10.2100   -3.0002    0.0000 O   0  0  0  0  0  0  0  0  0  0  0  0
   -9.2745   -1.9200    0.0000 N   0  0  0  0  0  0  0  0  0  0  0  0
   -8.6509   -2.4601    0.0000 C   0  0  0  0  0  0  0  0  0  0  0  0
   -8.8068   -3.2703    0.0000 C   0  0  0  0  0  0  0  0  0  0  0  0
   -8.1832   -3.8104    0.0000 C   0  0  0  0  0  0  0  0  0  0  0  0
   -8.1780   -4.6353    0.0000 H   0  0  0  0  0  0  0  0  0  0  0  0
   -7.3806   -4.0015    0.0000 H   0  0  0  0  0  0  0  0  0  0  0  0
   -7.8068   -3.0762    0.0000 H   0  0  0  0  0  0  0  0  0  0  0  0
   -9.5276   -3.6716    0.0000 H   0  0  0  0  0  0  0  0  0  0  0  0
   -9.1010   -4.0410    0.0000 H   0  0  0  0  0  0  0  0  0  0  0  0
   -7.8713   -2.1901    0.0000 C   0  0  0  0  0  0  0  0  0  0  0  0
   -7.7154   -1.3800    0.0000 O   0  0  0  0  0  0  0  0  0  0  0  0
   -7.2477   -2.7302    0.0000 N   0  0  0  0  0  0  0  0  0  0  0  0
   -6.4682   -2.4601    0.0000 C   0  0  0  0  0  0  0  0  0  0  0  0
   -5.8445   -3.0002    0.0000 C   0  0  0  0  0  0  0  0  0  0  0  0
   -6.0004   -3.8104    0.0000 O   0  0  0  0  0  0  0  0  0  0  0  0
   -5.0650   -2.7302    0.0000 N   0  0  0  0  0  0  0  0  0  0  0  0
   -4.4413   -3.2703    0.0000 C   0  0  0  0  0  0  0  0  0  0  0  0
   -4.5972   -4.0804    0.0000 C   0  0  0  0  0  0  0  0  0  0  0  0
   -3.9736   -4.6205    0.0000 C   0  0  0  0  0  0  0  0  0  0  0  0
   -3.1940   -4.3504    0.0000 C   0  0  0  0  0  0  0  0  0  0  0  0
   -3.3499   -5.1606    0.0000 H   0  0  0  0  0  0  0  0  0  0  0  0
   -2.5704   -4.8905    0.0000 H   0  0  0  0  0  0  0  0  0  0  0  0
   -2.4145   -4.0804    0.0000 H   0  0  0  0  0  0  0  0  0  0  0  0
   -4.1295   -5.4306    0.0000 C   0  0  0  0  0  0  0  0  0  0  0  0
   -4.8953   -5.7375    0.0000 H   0  0  0  0  0  0  0  0  0  0  0  0
   -4.2596   -6.2453    0.0000 H   0  0  0  0  0  0  0  0  0  0  0  0
   -3.4974   -5.9607    0.0000 H   0  0  0  0  0  0  0  0  0  0  0  0
   -3.8177   -3.8104    0.0000 H   0  0  0  0  0  0  0  0  0  0  0  0
   -5.3180   -4.4817    0.0000 H   0  0  0  0  0  0  0  0  0  0  0  0
   -4.8914   -4.8512    0.0000 H   0  0  0  0  0  0  0  0  0  0  0  0
   -3.6618   -3.0002    0.0000 C   0  0  0  0  0  0  0  0  0  0  0  0
   -3.5059   -2.1901    0.0000 O   0  0  0  0  0  0  0  0  0  0  0  0
   -3.0381   -3.5403    0.0000 N   0  0  0  0  0  0  0  0  0  0  0  0
   -2.2586   -3.2703    0.0000 C   0  0  0  0  0  0  0  0  0  0  0  0
   -2.1027   -2.4601    0.0000 C   0  0  0  0  0  0  0  0  0  0  0  0
   -2.7263   -1.9200    0.0000 C   0  0  0  0  0  0  0  0  0  0  0  0
   -2.5704   -1.1099    0.0000 C   0  0  0  0  0  0  0  0  0  0  0  0
   -1.7908   -0.8399    0.0000 O   0  0  0  0  0  0  0  0  0  0  0  0
   -3.1940   -0.5698    0.0000 N   0  0  0  0  0  0  0  0  0  0  0  0
   -3.9736   -0.8399    0.0000 C   0  0  0  0  0  0  0  0  0  0  0  0
   -3.9684   -0.0149    0.0000 H   0  0  0  0  0  0  0  0  0  0  0  0
   -4.7497   -0.5600    0.0000 H   0  0  0  0  0  0  0  0  0  0  0  0
   -4.4961   -1.4783    0.0000 H   0  0  0  0  0  0  0  0  0  0  0  0
   -3.0381    0.2403    0.0000 C   0  0  0  0  0  0  0  0  0  0  0  0
   -2.3020   -0.1321    0.0000 H   0  0  0  0  0  0  0  0  0  0  0  0
   -2.4778    0.8459    0.0000 H   0  0  0  0  0  0  0  0  0  0  0  0
   -3.4665    0.9454    0.0000 H   0  0  0  0  0  0  0  0  0  0  0  0
   -3.1276   -1.1992    0.0000 H   0  0  0  0  0  0  0  0  0  0  0  0
   -3.4971   -1.6258    0.0000 H   0  0  0  0  0  0  0  0  0  0  0  0
   -1.3818   -2.0588    0.0000 H   0  0  0  0  0  0  0  0  0  0  0  0
   -1.8084   -1.6894    0.0000 H   0  0  0  0  0  0  0  0  0  0  0  0
   -1.6349   -3.8104    0.0000 C   0  0  0  0  0  0  0  0  0  0  0  0
   -1.7908   -4.6205    0.0000 O   0  0  0  0  0  0  0  0  0  0  0  0
   -0.8554   -3.5403    0.0000 C   0  0  0  0  0  0  0  0  0  0  0  0
   -0.2317   -4.0804    0.0000 O   0  0  0  0  0  0  0  0  0  0  0  0
    0.5478   -3.8104    0.0000 C   0  0  0  0  0  0  0  0  0  0  0  0
    1.1715   -4.3504    0.0000 O   0  0  0  0  0  0  0  0  0  0  0  0
    0.7037   -3.0002    0.0000 C   0  0  0  0  0  0  0  0  0  0  0  0
    0.0801   -2.4601    0.0000 C   0  0  0  0  0  0  0  0  0  0  0  0
   -0.6995   -2.7302    0.0000 C   0  0  0  0  0  0  0  0  0  0  0  0
   -0.2610   -2.0314    0.0000 H   0  0  0  0  0  0  0  0  0  0  0  0
   -0.7954   -1.9108    0.0000 H   0  0  0  0  0  0  0  0  0  0  0  0
   -1.5042   -2.5486    0.0000 H   0  0  0  0  0  0  0  0  0  0  0  0
    0.2360   -1.6500    0.0000 C   0  0  0  0  0  0  0  0  0  0  0  0
   -0.1552   -0.9236    0.0000 H   0  0  0  0  0  0  0  0  0  0  0  0
    1.0155   -1.3800    0.0000 C   0  0  0  0  0  0  0  0  0  0  0  0
    1.1715   -0.5698    0.0000 H   0  0  0  0  0  0  0  0  0  0  0  0
    1.6392   -1.9200    0.0000 C   0  0  0  0  0  0  0  0  0  0  0  0
    2.4187   -1.6500    0.0000 H   0  0  0  0  0  0  0  0  0  0  0  0
    1.4833   -2.7302    0.0000 C   0  0  0  0  0  0  0  0  0  0  0  0
    2.1069   -3.2703    0.0000 C   0  0  0  0  0  0  0  0  0  0  0  0
    1.5668   -3.8939    0.0000 H   0  0  0  0  0  0  0  0  0  0  0  0
    2.7306   -3.8104    0.0000 H   0  0  0  0  0  0  0  0  0  0  0  0
    2.6470   -2.6466    0.0000 H   0  0  0  0  0  0  0  0  0  0  0  0
   -0.0758   -3.2703    0.0000 H   0  0  0  0  0  0  0  0  0  0  0  0
   -1.0113   -4.3504    0.0000 H   0  0  0  0  0  0  0  0  0  0  0  0
   -1.4790   -3.0002    0.0000 H   0  0  0  0  0  0  0  0  0  0  0  0
   -2.8822   -2.7302    0.0000 H   0  0  0  0  0  0  0  0  0  0  0  0
   -5.2209   -3.5403    0.0000 H   0  0  0  0  0  0  0  0  0  0  0  0
   -4.9090   -1.9200    0.0000 H   0  0  0  0  0  0  0  0  0  0  0  0
   -6.3122   -1.6500    0.0000 C   0  0  0  0  0  0  0  0  0  0  0  0
   -5.5021   -1.8059    0.0000 C   0  0  0  0  0  0  0  0  0  0  0  0
   -5.9257   -2.5139    0.0000 H   0  0  0  0  0  0  0  0  0  0  0  0
   -5.3715   -2.6205    0.0000 H   0  0  0  0  0  0  0  0  0  0  0  0
   -5.3462   -0.9958    0.0000 H   0  0  0  0  0  0  0  0  0  0  0  0
   -7.1224   -1.4941    0.0000 C   0  0  0  0  0  0  0  0  0  0  0  0
   -6.6988   -0.7861    0.0000 H   0  0  0  0  0  0  0  0  0  0  0  0
   -7.2530   -0.6795    0.0000 H   0  0  0  0  0  0  0  0  0  0  0  0
   -7.2783   -2.3042    0.0000 H   0  0  0  0  0  0  0  0  0  0  0  0
   -6.1563   -0.8399    0.0000 C   0  0  0  0  0  0  0  0  0  0  0  0
   -5.4840   -0.3618    0.0000 H   0  0  0  0  0  0  0  0  0  0  0  0
   -6.0376   -0.0235    0.0000 H   0  0  0  0  0  0  0  0  0  0  0  0
   -6.6646   -0.1901    0.0000 H   0  0  0  0  0  0  0  0  0  0  0  0
   -6.6241   -3.2703    0.0000 H   0  0  0  0  0  0  0  0  0  0  0  0
   -6.8934   -3.4752    0.0000 H   0  0  0  0  0  0  0  0  0  0  0  0
   -9.4304   -2.7302    0.0000 H   0  0  0  0  0  0  0  0  0  0  0  0
   -9.1186   -1.1099    0.0000 H   0  0  0  0  0  0  0  0  0  0  0  0
  -10.1748   -0.9960    0.0000 H   0  0  0  0  0  0  0  0  0  0  0  0
  -10.9020   -0.8561    0.0000 H   0  0  0  0  0  0  0  0  0  0  0  0
  -11.9602   -2.5740    0.0000 H   0  0  0  0  0  0  0  0  0  0  0  0
  -11.2330   -2.7140    0.0000 H   0  0  0  0  0  0  0  0  0  0  0  0
  -11.5780   -0.7260    0.0000 H   0  0  0  0  0  0  0  0  0  0  0  0
  -12.3052   -0.5860    0.0000 H   0  0  0  0  0  0  0  0  0  0  0  0
  -14.4196   -2.1901    0.0000 H   0  0  0  0  0  0  0  0  0  0  0  0
  1  2  3  0  0  0  0
  2  3  1  0  0  0  0
  3  4  1  0  0  0  0
  4  5  1  0  0  0  0
  5  6  1  0  0  0  0
  6  7  2  0  0  0  0
  6  8  1  0  0  0  0
  8  9  1  0  0  0  0
  9 10  1  0  0  0  0
 10 11  1  0  0  0  0
 11 12  1  0  0  0  0
 11 13  1  0  0  0  0
 11 14  1  0  0  0  0
 10 15  1  0  0  0  0
 10 16  1  0  0  0  0
  9 17  1  0  0  0  0
 17 18  2  0  0  0  0
 17 19  1  0  0  0  0
 19 20  1  0  0  0  0
 20 21  1  0  0  0  0
 21 22  2  0  0  0  0
 21 23  1  0  0  0  0
 23 24  1  0  0  0  0
 24 25  1  0  0  0  0
 25 26  1  0  0  0  0
 26 27  1  0  0  0  0
 27 28  1  0  0  0  0
 27 29  1  0  0  0  0
 27 30  1  0  0  0  0
 26 31  1  0  0  0  0
 31 32  1  0  0  0  0
 31 33  1  0  0  0  0
 31 34  1  0  0  0  0
 26 35  1  0  0  0  0
 25 36  1  0  0  0  0
 25 37  1  0  0  0  0
 24 38  1  0  0  0  0
 38 39  2  0  0  0  0
 38 40  1  0  0  0  0
 40 41  1  0  0  0  0
 41 42  1  0  0  0  0
 42 43  1  0  0  0  0
 43 44  1  0  0  0  0
 44 45  2  0  0  0  0
 44 46  1  0  0  0  0
 46 47  1  0  0  0  0
 47 48  1  0  0  0  0
 47 49  1  0  0  0  0
 47 50  1  0  0  0  0
 46 51  1  0  0  0  0
 51 52  1  0  0  0  0
 51 53  1  0  0  0  0
 51 54  1  0  0  0  0
 43 55  1  0  0  0  0
 43 56  1  0  0  0  0
 42 57  1  0  0  0  0
 42 58  1  0  0  0  0
 41 59  1  0  0  0  0
 59 60  2  0  0  0  0
 59 61  1  0  0  0  0
 61 62  1  0  0  0  0
 62 63  1  0  0  0  0
 63 64  2  0  0  0  0
 63 65  1  0  0  0  0
 65 66  2  0  0  0  0
 66 67  1  0  0  0  0
 67 68  1  0  0  0  0
 67 69  1  0  0  0  0
 67 70  1  0  0  0  0
 66 71  1  0  0  0  0
 71 72  1  0  0  0  0
 71 73  2  0  0  0  0
 73 74  1  0  0  0  0
 73 75  1  0  0  0  0
 75 76  1  0  0  0  0
 75 77  2  0  0  0  0
 65 77  1  0  0  0  0
 77 78  1  0  0  0  0
 78 79  1  0  0  0  0
 78 80  1  0  0  0  0
 78 81  1  0  0  0  0
 61 82  1  0  0  0  0
 61 83  1  0  0  0  0
 41 84  1  0  0  0  0
 40 85  1  0  0  0  0
 24 86  1  0  0  0  0
 23 87  1  0  0  0  0
 20 88  1  0  0  0  0
 88 89  1  0  0  0  0
 89 90  1  0  0  0  0
 89 91  1  0  0  0  0
 89 92  1  0  0  0  0
 88 93  1  0  0  0  0
 93 94  1  0  0  0  0
 93 95  1  0  0  0  0
 93 96  1  0  0  0  0
 88 97  1  0  0  0  0
 97 98  1  0  0  0  0
 97 99  1  0  0  0  0
 97100  1  0  0  0  0
 20101  1  0  0  0  0
 19102  1  0  0  0  0
  9103  1  0  0  0  0
  8104  1  0  0  0  0
  5105  1  0  0  0  0
  5106  1  0  0  0  0
  4107  1  0  0  0  0
  4108  1  0  0  0  0
  3109  1  0  0  0  0
  3110  1  0  0  0  0
  1111  1  0  0  0  0
M  END
> <Potency>
5.79828926708995

> <pIC50>
5.236700122205021

> <Outcome>
Active

> <is_active>
1

$$$$

  Mrv1921 08232120312D          

 62 64  0  0  0  0            999 V2000
    2.9779   -4.7905    0.0000 C   0  0  0  0  0  0  0  0  0  0  0  0
    3.5724   -5.3625    0.0000 C   0  0  0  0  0  0  0  0  0  0  0  0
    4.3650   -5.1337    0.0000 O   0  0  0  0  0  0  0  0  0  0  0  0
    4.9595   -5.7057    0.0000 C   0  0  0  0  0  0  0  0  0  0  0  0
    4.7613   -6.5066    0.0000 O   0  0  0  0  0  0  0  0  0  0  0  0
    5.7521   -5.4769    0.0000 C   0  0  0  0  0  0  0  0  0  0  0  0
    6.3466   -6.0489    0.0000 N   0  0  0  0  0  0  0  0  0  0  0  0
    7.1392   -5.8201    0.0000 C   0  0  0  0  0  0  0  0  0  0  0  0
    7.3374   -5.0193    0.0000 O   0  0  0  0  0  0  0  0  0  0  0  0
    7.7337   -6.3922    0.0000 C   0  0  0  0  0  0  0  0  0  0  0  0
    7.5355   -7.1930    0.0000 C   0  0  0  0  0  0  0  0  0  0  0  0
    8.1300   -7.7650    0.0000 C   0  0  0  0  0  0  0  0  0  0  0  0
    8.3282   -6.9642    0.0000 H   0  0  0  0  0  0  0  0  0  0  0  0
    7.9318   -8.5659    0.0000 C   0  0  0  0  0  0  0  0  0  0  0  0
    8.5263   -9.1379    0.0000 H   0  0  0  0  0  0  0  0  0  0  0  0
    7.1392   -8.7947    0.0000 C   0  0  0  0  0  0  0  0  0  0  0  0
    6.9411   -9.5956    0.0000 H   0  0  0  0  0  0  0  0  0  0  0  0
    6.5447   -8.2227    0.0000 N   0  0  0  0  0  0  0  0  0  0  0  0
    6.7429   -7.4218    0.0000 C   0  0  0  0  0  0  0  0  0  0  0  0
    5.9503   -7.6506    0.0000 H   0  0  0  0  0  0  0  0  0  0  0  0
    8.5263   -6.1633    0.0000 N   0  0  0  0  0  0  0  0  0  0  0  0
    8.7245   -5.3625    0.0000 C   0  0  0  0  0  0  0  0  0  0  0  0
    8.1300   -4.7905    0.0000 O   0  0  0  0  0  0  0  0  0  0  0  0
    9.5171   -5.1337    0.0000 C   0  0  0  0  0  0  0  0  0  0  0  0
    9.7979   -4.3579    0.0000 C   0  0  0  0  0  0  0  0  0  0  0  0
    9.3353   -3.6748    0.0000 H   0  0  0  0  0  0  0  0  0  0  0  0
   10.6224   -4.3853    0.0000 O   0  0  0  0  0  0  0  0  0  0  0  0
   10.8513   -5.1779    0.0000 C   0  0  0  0  0  0  0  0  0  0  0  0
   11.6270   -5.4587    0.0000 H   0  0  0  0  0  0  0  0  0  0  0  0
   10.1681   -5.6404    0.0000 N   0  0  0  0  0  0  0  0  0  0  0  0
    9.1208   -6.7354    0.0000 C   0  0  0  0  0  0  0  0  0  0  0  0
    9.9134   -6.5066    0.0000 C   0  0  0  0  0  0  0  0  0  0  0  0
    9.3315   -5.9218    0.0000 H   0  0  0  0  0  0  0  0  0  0  0  0
   10.5079   -7.0786    0.0000 C   0  0  0  0  0  0  0  0  0  0  0  0
   11.3005   -6.8498    0.0000 H   0  0  0  0  0  0  0  0  0  0  0  0
   10.3097   -7.8795    0.0000 C   0  0  0  0  0  0  0  0  0  0  0  0
   10.9042   -8.4515    0.0000 C   0  0  0  0  0  0  0  0  0  0  0  0
   11.4987   -9.0235    0.0000 C   0  0  0  0  0  0  0  0  0  0  0  0
   10.9267   -9.6180    0.0000 H   0  0  0  0  0  0  0  0  0  0  0  0
   12.0932   -9.5956    0.0000 H   0  0  0  0  0  0  0  0  0  0  0  0
   12.0707   -8.4290    0.0000 H   0  0  0  0  0  0  0  0  0  0  0  0
   10.3322   -9.0460    0.0000 C   0  0  0  0  0  0  0  0  0  0  0  0
   10.0019   -8.2900    0.0000 H   0  0  0  0  0  0  0  0  0  0  0  0
    9.5073   -9.0618    0.0000 H   0  0  0  0  0  0  0  0  0  0  0  0
   10.0312   -9.8141    0.0000 H   0  0  0  0  0  0  0  0  0  0  0  0
   11.4763   -7.8570    0.0000 C   0  0  0  0  0  0  0  0  0  0  0  0
   12.2322   -7.5267    0.0000 H   0  0  0  0  0  0  0  0  0  0  0  0
   11.4604   -7.0322    0.0000 H   0  0  0  0  0  0  0  0  0  0  0  0
   10.7081   -7.5560    0.0000 H   0  0  0  0  0  0  0  0  0  0  0  0
    9.5171   -8.1083    0.0000 C   0  0  0  0  0  0  0  0  0  0  0  0
    8.7563   -8.4274    0.0000 H   0  0  0  0  0  0  0  0  0  0  0  0
    8.9226   -7.5362    0.0000 C   0  0  0  0  0  0  0  0  0  0  0  0
    9.7153   -7.3074    0.0000 H   0  0  0  0  0  0  0  0  0  0  0  0
    6.9411   -6.6210    0.0000 H   0  0  0  0  0  0  0  0  0  0  0  0
    6.1484   -6.8498    0.0000 H   0  0  0  0  0  0  0  0  0  0  0  0
    6.2886   -4.8502    0.0000 H   0  0  0  0  0  0  0  0  0  0  0  0
    5.5698   -4.6723    0.0000 H   0  0  0  0  0  0  0  0  0  0  0  0
    3.0359   -5.9892    0.0000 H   0  0  0  0  0  0  0  0  0  0  0  0
    3.7547   -6.1671    0.0000 H   0  0  0  0  0  0  0  0  0  0  0  0
    3.5499   -4.1960    0.0000 H   0  0  0  0  0  0  0  0  0  0  0  0
    2.3834   -4.2184    0.0000 H   0  0  0  0  0  0  0  0  0  0  0  0
    2.4058   -5.3849    0.0000 H   0  0  0  0  0  0  0  0  0  0  0  0
  1  2  1  0  0  0  0
  2  3  1  0  0  0  0
  3  4  1  0  0  0  0
  4  5  2  0  0  0  0
  4  6  1  0  0  0  0
  6  7  1  0  0  0  0
  7  8  1  0  0  0  0
  8  9  2  0  0  0  0
  8 10  1  0  0  0  0
 10 11  1  0  0  0  0
 11 12  2  0  0  0  0
 12 13  1  0  0  0  0
 12 14  1  0  0  0  0
 14 15  1  0  0  0  0
 14 16  2  0  0  0  0
 16 17  1  0  0  0  0
 16 18  1  0  0  0  0
 18 19  2  0  0  0  0
 11 19  1  0  0  0  0
 19 20  1  0  0  0  0
 10 21  1  0  0  0  0
 21 22  1  0  0  0  0
 22 23  2  0  0  0  0
 22 24  1  0  0  0  0
 24 25  2  0  0  0  0
 25 26  1  0  0  0  0
 25 27  1  0  0  0  0
 27 28  1  0  0  0  0
 28 29  1  0  0  0  0
 28 30  2  0  0  0  0
 24 30  1  0  0  0  0
 21 31  1  0  0  0  0
 31 32  2  0  0  0  0
 32 33  1  0  0  0  0
 32 34  1  0  0  0  0
 34 35  1  0  0  0  0
 34 36  2  0  0  0  0
 36 37  1  0  0  0  0
 37 38  1  0  0  0  0
 38 39  1  0  0  0  0
 38 40  1  0  0  0  0
 38 41  1  0  0  0  0
 37 42  1  0  0  0  0
 42 43  1  0  0  0  0
 42 44  1  0  0  0  0
 42 45  1  0  0  0  0
 37 46  1  0  0  0  0
 46 47  1  0  0  0  0
 46 48  1  0  0  0  0
 46 49  1  0  0  0  0
 36 50  1  0  0  0  0
 50 51  1  0  0  0  0
 50 52  2  0  0  0  0
 31 52  1  0  0  0  0
 52 53  1  0  0  0  0
 10 54  1  0  0  0  0
  7 55  1  0  0  0  0
  6 56  1  0  0  0  0
  6 57  1  0  0  0  0
  2 58  1  0  0  0  0
  2 59  1  0  0  0  0
  1 60  1  0  0  0  0
  1 61  1  0  0  0  0
  1 62  1  0  0  0  0
M  END
> <Potency>
9.52684659761198

> <pIC50>
5.021050827786187

> <Outcome>
Active

> <is_active>
1

$$$$

  Mrv1921 08232120312D          

 43 46  0  0  0  0            999 V2000
    2.1434    1.2375    0.0000 C   0  0  0  0  0  0  0  0  0  0  0  0
    2.8579    0.8250    0.0000 O   0  0  0  0  0  0  0  0  0  0  0  0
    3.5724    1.2375    0.0000 C   0  0  0  0  0  0  0  0  0  0  0  0
    3.5724    2.0625    0.0000 C   0  0  0  0  0  0  0  0  0  0  0  0
    2.8579    2.4750    0.0000 H   0  0  0  0  0  0  0  0  0  0  0  0
    4.2868    2.4750    0.0000 C   0  0  0  0  0  0  0  0  0  0  0  0
    4.2868    3.3000    0.0000 H   0  0  0  0  0  0  0  0  0  0  0  0
    5.0013    2.0625    0.0000 C   0  0  0  0  0  0  0  0  0  0  0  0
    5.7158    2.4750    0.0000 C   0  0  0  0  0  0  0  0  0  0  0  0
    6.4302    2.0625    0.0000 N   0  0  0  0  0  0  0  0  0  0  0  0
    6.4302    1.2375    0.0000 C   0  0  0  0  0  0  0  0  0  0  0  0
    5.7158    0.8250    0.0000 C   0  0  0  0  0  0  0  0  0  0  0  0
    5.7158    0.0000    0.0000 N   0  0  0  0  0  0  0  0  0  0  0  0
    5.0013   -0.4125    0.0000 C   0  0  0  0  0  0  0  0  0  0  0  0
    4.2868    0.0000    0.0000 O   0  0  0  0  0  0  0  0  0  0  0  0
    5.0013   -1.2375    0.0000 C   0  0  0  0  0  0  0  0  0  0  0  0
    5.7158   -1.6500    0.0000 C   0  0  0  0  0  0  0  0  0  0  0  0
    6.5394   -1.6020    0.0000 H   0  0  0  0  0  0  0  0  0  0  0  0
    6.1691   -0.9607    0.0000 H   0  0  0  0  0  0  0  0  0  0  0  0
    5.7158   -2.4750    0.0000 C   0  0  0  0  0  0  0  0  0  0  0  0
    6.1691   -3.1643    0.0000 H   0  0  0  0  0  0  0  0  0  0  0  0
    6.5394   -2.5230    0.0000 H   0  0  0  0  0  0  0  0  0  0  0  0
    5.0013   -2.8875    0.0000 O   0  0  0  0  0  0  0  0  0  0  0  0
    4.2868   -2.4750    0.0000 C   0  0  0  0  0  0  0  0  0  0  0  0
    3.5724   -2.8875    0.0000 C   0  0  0  0  0  0  0  0  0  0  0  0
    2.8579   -2.4750    0.0000 C   0  0  0  0  0  0  0  0  0  0  0  0
    2.8579   -1.6500    0.0000 C   0  0  0  0  0  0  0  0  0  0  0  0
    2.1434   -1.2375    0.0000 Cl  0  0  0  0  0  0  0  0  0  0  0  0
    3.5724   -1.2375    0.0000 C   0  0  0  0  0  0  0  0  0  0  0  0
    3.1599   -0.5230    0.0000 H   0  0  0  0  0  0  0  0  0  0  0  0
    4.2868   -1.6500    0.0000 C   0  0  0  0  0  0  0  0  0  0  0  0
    2.1434   -2.8875    0.0000 H   0  0  0  0  0  0  0  0  0  0  0  0
    3.5724   -3.7125    0.0000 H   0  0  0  0  0  0  0  0  0  0  0  0
    4.2868   -0.8250    0.0000 H   0  0  0  0  0  0  0  0  0  0  0  0
    6.4302   -0.4125    0.0000 H   0  0  0  0  0  0  0  0  0  0  0  0
    5.0013    1.2375    0.0000 C   0  0  0  0  0  0  0  0  0  0  0  0
    4.2868    0.8250    0.0000 C   0  0  0  0  0  0  0  0  0  0  0  0
    3.5724    0.4125    0.0000 H   0  0  0  0  0  0  0  0  0  0  0  0
    7.1447    0.8250    0.0000 H   0  0  0  0  0  0  0  0  0  0  0  0
    5.7158    3.3000    0.0000 H   0  0  0  0  0  0  0  0  0  0  0  0
    2.5559    1.9520    0.0000 H   0  0  0  0  0  0  0  0  0  0  0  0
    1.4289    1.6500    0.0000 H   0  0  0  0  0  0  0  0  0  0  0  0
    1.7309    0.5230    0.0000 H   0  0  0  0  0  0  0  0  0  0  0  0
  1  2  1  0  0  0  0
  2  3  1  0  0  0  0
  3  4  2  0  0  0  0
  4  5  1  0  0  0  0
  4  6  1  0  0  0  0
  6  7  1  0  0  0  0
  6  8  2  0  0  0  0
  8  9  1  0  0  0  0
  9 10  2  0  0  0  0
 10 11  1  0  0  0  0
 11 12  2  0  0  0  0
 12 13  1  0  0  0  0
 13 14  1  0  0  0  0
 14 15  2  0  0  0  0
 14 16  1  0  0  0  0
 16 17  1  0  0  0  0
 17 18  1  0  0  0  0
 17 19  1  0  0  0  0
 17 20  1  0  0  0  0
 20 21  1  0  0  0  0
 20 22  1  0  0  0  0
 20 23  1  0  0  0  0
 23 24  1  0  0  0  0
 24 25  2  0  0  0  0
 25 26  1  0  0  0  0
 26 27  2  0  0  0  0
 27 28  1  0  0  0  0
 27 29  1  0  0  0  0
 29 30  1  0  0  0  0
 29 31  2  0  0  0  0
 16 31  1  0  0  0  0
 24 31  1  0  0  0  0
 26 32  1  0  0  0  0
 25 33  1  0  0  0  0
 16 34  1  0  0  0  0
 13 35  1  0  0  0  0
 12 36  1  0  0  0  0
  8 36  1  0  0  0  0
 36 37  2  0  0  0  0
  3 37  1  0  0  0  0
 37 38  1  0  0  0  0
 11 39  1  0  0  0  0
  9 40  1  0  0  0  0
  1 41  1  0  0  0  0
  1 42  1  0  0  0  0
  1 43  1  0  0  0  0
M  END
> <Potency>
0.22617491666093

> <pIC50>
6.645555561036488

> <Outcome>
Active

> <is_active>
1

$$$$

  Mrv1921 08232120312D          

 39 42  0  0  0  0            999 V2000
    2.1434   -2.8875    0.0000 O   0  0  0  0  0  0  0  0  0  0  0  0
    1.4289   -2.4750    0.0000 C   0  0  0  0  0  0  0  0  0  0  0  0
    0.7145   -2.8875    0.0000 N   0  0  0  0  0  0  0  0  0  0  0  0
    0.7145   -3.7125    0.0000 C   0  0  0  0  0  0  0  0  0  0  0  0
    1.4289   -4.1250    0.0000 C   0  0  0  0  0  0  0  0  0  0  0  0
    2.1434   -3.7125    0.0000 H   0  0  0  0  0  0  0  0  0  0  0  0
    1.4289   -4.9500    0.0000 N   0  0  0  0  0  0  0  0  0  0  0  0
    0.7145   -5.3625    0.0000 C   0  0  0  0  0  0  0  0  0  0  0  0
    0.7145   -6.1875    0.0000 H   0  0  0  0  0  0  0  0  0  0  0  0
    0.0000   -4.9500    0.0000 C   0  0  0  0  0  0  0  0  0  0  0  0
   -0.7145   -5.3625    0.0000 C   0  0  0  0  0  0  0  0  0  0  0  0
   -1.4289   -4.9500    0.0000 C   0  0  0  0  0  0  0  0  0  0  0  0
   -1.4289   -4.1250    0.0000 C   0  0  0  0  0  0  0  0  0  0  0  0
   -0.7145   -3.7125    0.0000 C   0  0  0  0  0  0  0  0  0  0  0  0
   -0.7145   -2.8875    0.0000 H   0  0  0  0  0  0  0  0  0  0  0  0
    0.0000   -4.1250    0.0000 C   0  0  0  0  0  0  0  0  0  0  0  0
   -2.1434   -3.7125    0.0000 H   0  0  0  0  0  0  0  0  0  0  0  0
   -2.1434   -5.3625    0.0000 H   0  0  0  0  0  0  0  0  0  0  0  0
   -0.7145   -6.1875    0.0000 H   0  0  0  0  0  0  0  0  0  0  0  0
    0.0000   -2.4750    0.0000 H   0  0  0  0  0  0  0  0  0  0  0  0
    1.4289   -1.6500    0.0000 C   0  0  0  0  0  0  0  0  0  0  0  0
    0.7145   -1.2375    0.0000 C   0  0  0  0  0  0  0  0  0  0  0  0
   -0.1091   -1.2855    0.0000 H   0  0  0  0  0  0  0  0  0  0  0  0
    0.2611   -1.9268    0.0000 H   0  0  0  0  0  0  0  0  0  0  0  0
    0.7145   -0.4125    0.0000 C   0  0  0  0  0  0  0  0  0  0  0  0
    0.2611    0.2768    0.0000 H   0  0  0  0  0  0  0  0  0  0  0  0
   -0.1091   -0.3645    0.0000 H   0  0  0  0  0  0  0  0  0  0  0  0
    1.4289    0.0000    0.0000 O   0  0  0  0  0  0  0  0  0  0  0  0
    2.1434   -0.4125    0.0000 C   0  0  0  0  0  0  0  0  0  0  0  0
    2.8579    0.0000    0.0000 C   0  0  0  0  0  0  0  0  0  0  0  0
    2.8579    0.8250    0.0000 Cl  0  0  0  0  0  0  0  0  0  0  0  0
    3.5724   -0.4125    0.0000 C   0  0  0  0  0  0  0  0  0  0  0  0
    3.5724   -1.2375    0.0000 C   0  0  0  0  0  0  0  0  0  0  0  0
    4.2868   -1.6500    0.0000 Cl  0  0  0  0  0  0  0  0  0  0  0  0
    2.8579   -1.6500    0.0000 C   0  0  0  0  0  0  0  0  0  0  0  0
    3.2704   -2.3645    0.0000 H   0  0  0  0  0  0  0  0  0  0  0  0
    2.1434   -1.2375    0.0000 C   0  0  0  0  0  0  0  0  0  0  0  0
    4.2868   -0.0000    0.0000 H   0  0  0  0  0  0  0  0  0  0  0  0
    2.1434   -2.0625    0.0000 H   0  0  0  0  0  0  0  0  0  0  0  0
  1  2  2  0  0  0  0
  2  3  1  0  0  0  0
  3  4  1  0  0  0  0
  4  5  2  0  0  0  0
  5  6  1  0  0  0  0
  5  7  1  0  0  0  0
  7  8  2  0  0  0  0
  8  9  1  0  0  0  0
  8 10  1  0  0  0  0
 10 11  2  0  0  0  0
 11 12  1  0  0  0  0
 12 13  2  0  0  0  0
 13 14  1  0  0  0  0
 14 15  1  0  0  0  0
 14 16  2  0  0  0  0
  4 16  1  0  0  0  0
 10 16  1  0  0  0  0
 13 17  1  0  0  0  0
 12 18  1  0  0  0  0
 11 19  1  0  0  0  0
  3 20  1  0  0  0  0
  2 21  1  0  0  0  0
 21 22  1  0  0  0  0
 22 23  1  0  0  0  0
 22 24  1  0  0  0  0
 22 25  1  0  0  0  0
 25 26  1  0  0  0  0
 25 27  1  0  0  0  0
 25 28  1  0  0  0  0
 28 29  1  0  0  0  0
 29 30  2  0  0  0  0
 30 31  1  0  0  0  0
 30 32  1  0  0  0  0
 32 33  2  0  0  0  0
 33 34  1  0  0  0  0
 33 35  1  0  0  0  0
 35 36  1  0  0  0  0
 35 37  2  0  0  0  0
 21 37  1  0  0  0  0
 29 37  1  0  0  0  0
 32 38  1  0  0  0  0
 21 39  1  0  0  0  0
M  END
> <Potency>
0.265498741707095

> <pIC50>
6.5759375328535485

> <Outcome>
Active

> <is_active>
1

$$$$

  Mrv1921 08232120312D          

 37 39  0  0  0  0            999 V2000
    1.4289   -2.4750    0.0000 C   0  0  0  0  0  0  0  0  0  0  0  0
    1.4289   -1.6500    0.0000 C   0  0  0  0  0  0  0  0  0  0  0  0
    0.7145   -1.2375    0.0000 C   0  0  0  0  0  0  0  0  0  0  0  0
    0.0000   -1.6500    0.0000 H   0  0  0  0  0  0  0  0  0  0  0  0
    0.7145   -0.4125    0.0000 C   0  0  0  0  0  0  0  0  0  0  0  0
    0.0000    0.0000    0.0000 H   0  0  0  0  0  0  0  0  0  0  0  0
    1.4289    0.0000    0.0000 C   0  0  0  0  0  0  0  0  0  0  0  0
    1.4289    0.8250    0.0000 H   0  0  0  0  0  0  0  0  0  0  0  0
    2.1434   -0.4125    0.0000 C   0  0  0  0  0  0  0  0  0  0  0  0
    2.8579    0.0000    0.0000 C   0  0  0  0  0  0  0  0  0  0  0  0
    3.5724   -0.4125    0.0000 N   0  0  0  0  0  0  0  0  0  0  0  0
    3.5724   -1.2375    0.0000 C   0  0  0  0  0  0  0  0  0  0  0  0
    2.8579   -1.6500    0.0000 C   0  0  0  0  0  0  0  0  0  0  0  0
    2.8579   -2.4750    0.0000 N   0  0  0  0  0  0  0  0  0  0  0  0
    3.5724   -2.8875    0.0000 C   0  0  0  0  0  0  0  0  0  0  0  0
    4.2868   -2.4750    0.0000 O   0  0  0  0  0  0  0  0  0  0  0  0
    3.5724   -3.7125    0.0000 C   0  0  0  0  0  0  0  0  0  0  0  0
    2.8579   -4.1250    0.0000 C   0  0  0  0  0  0  0  0  0  0  0  0
    2.8579   -4.9500    0.0000 C   0  0  0  0  0  0  0  0  0  0  0  0
    3.5724   -5.3625    0.0000 H   0  0  0  0  0  0  0  0  0  0  0  0
    2.1434   -5.3625    0.0000 C   0  0  0  0  0  0  0  0  0  0  0  0
    2.1434   -6.1875    0.0000 H   0  0  0  0  0  0  0  0  0  0  0  0
    1.4289   -4.9500    0.0000 C   0  0  0  0  0  0  0  0  0  0  0  0
    0.7145   -5.3625    0.0000 H   0  0  0  0  0  0  0  0  0  0  0  0
    1.4289   -4.1250    0.0000 C   0  0  0  0  0  0  0  0  0  0  0  0
    0.7145   -3.7125    0.0000 Cl  0  0  0  0  0  0  0  0  0  0  0  0
    2.1434   -3.7125    0.0000 C   0  0  0  0  0  0  0  0  0  0  0  0
    2.1434   -4.5375    0.0000 H   0  0  0  0  0  0  0  0  0  0  0  0
    4.0257   -4.4018    0.0000 H   0  0  0  0  0  0  0  0  0  0  0  0
    4.3960   -3.7605    0.0000 H   0  0  0  0  0  0  0  0  0  0  0  0
    2.6444   -3.2719    0.0000 H   0  0  0  0  0  0  0  0  0  0  0  0
    2.1434   -1.2375    0.0000 C   0  0  0  0  0  0  0  0  0  0  0  0
    4.2868   -1.6500    0.0000 H   0  0  0  0  0  0  0  0  0  0  0  0
    2.8579    0.8250    0.0000 H   0  0  0  0  0  0  0  0  0  0  0  0
    0.6039   -2.4750    0.0000 H   0  0  0  0  0  0  0  0  0  0  0  0
    1.4289   -3.3000    0.0000 H   0  0  0  0  0  0  0  0  0  0  0  0
    2.2539   -2.4750    0.0000 H   0  0  0  0  0  0  0  0  0  0  0  0
  1  2  1  0  0  0  0
  2  3  2  0  0  0  0
  3  4  1  0  0  0  0
  3  5  1  0  0  0  0
  5  6  1  0  0  0  0
  5  7  2  0  0  0  0
  7  8  1  0  0  0  0
  7  9  1  0  0  0  0
  9 10  2  0  0  0  0
 10 11  1  0  0  0  0
 11 12  2  0  0  0  0
 12 13  1  0  0  0  0
 13 14  1  0  0  0  0
 14 15  1  0  0  0  0
 15 16  2  0  0  0  0
 15 17  1  0  0  0  0
 17 18  1  0  0  0  0
 18 19  2  0  0  0  0
 19 20  1  0  0  0  0
 19 21  1  0  0  0  0
 21 22  1  0  0  0  0
 21 23  2  0  0  0  0
 23 24  1  0  0  0  0
 23 25  1  0  0  0  0
 25 26  1  0  0  0  0
 25 27  2  0  0  0  0
 18 27  1  0  0  0  0
 27 28  1  0  0  0  0
 17 29  1  0  0  0  0
 17 30  1  0  0  0  0
 14 31  1  0  0  0  0
 13 32  2  0  0  0  0
  2 32  1  0  0  0  0
  9 32  1  0  0  0  0
 12 33  1  0  0  0  0
 10 34  1  0  0  0  0
  1 35  1  0  0  0  0
  1 36  1  0  0  0  0
  1 37  1  0  0  0  0
M  END
> <Potency>
0.331374883454707

> <pIC50>
6.47968041200117

> <Outcome>
Active

> <is_active>
1

$$$$

  Mrv1921 08232120312D          

 65 67  0  0  0  0            999 V2000
    0.2700   -3.8782    0.0000 C   0  0  0  0  0  0  0  0  0  0  0  0
    0.5401   -3.0986    0.0000 C   0  0  0  0  0  0  0  0  0  0  0  0
    0.0000   -2.4750    0.0000 C   0  0  0  0  0  0  0  0  0  0  0  0
   -0.8101   -2.6309    0.0000 O   0  0  0  0  0  0  0  0  0  0  0  0
    0.2700   -1.6954    0.0000 N   0  0  0  0  0  0  0  0  0  0  0  0
   -0.2700   -1.0718    0.0000 C   0  0  0  0  0  0  0  0  0  0  0  0
   -1.0802   -1.2277    0.0000 C   0  0  0  0  0  0  0  0  0  0  0  0
   -1.3502   -2.0073    0.0000 H   0  0  0  0  0  0  0  0  0  0  0  0
   -1.6203   -0.6041    0.0000 C   0  0  0  0  0  0  0  0  0  0  0  0
   -2.4304   -0.7600    0.0000 H   0  0  0  0  0  0  0  0  0  0  0  0
   -1.3502    0.1755    0.0000 C   0  0  0  0  0  0  0  0  0  0  0  0
   -1.8903    0.7991    0.0000 C   0  0  0  0  0  0  0  0  0  0  0  0
   -2.4304    1.4228    0.0000 C   0  0  0  0  0  0  0  0  0  0  0  0
   -1.8068    1.9628    0.0000 H   0  0  0  0  0  0  0  0  0  0  0  0
   -2.9705    2.0464    0.0000 H   0  0  0  0  0  0  0  0  0  0  0  0
   -3.0540    0.8827    0.0000 H   0  0  0  0  0  0  0  0  0  0  0  0
   -2.5140    0.2590    0.0000 C   0  0  0  0  0  0  0  0  0  0  0  0
   -3.2968   -0.0013    0.0000 H   0  0  0  0  0  0  0  0  0  0  0  0
   -2.5730   -0.5639    0.0000 H   0  0  0  0  0  0  0  0  0  0  0  0
   -1.7763   -0.1105    0.0000 H   0  0  0  0  0  0  0  0  0  0  0  0
   -1.2667    1.3392    0.0000 C   0  0  0  0  0  0  0  0  0  0  0  0
   -1.0064    0.5564    0.0000 H   0  0  0  0  0  0  0  0  0  0  0  0
   -0.4438    1.2801    0.0000 H   0  0  0  0  0  0  0  0  0  0  0  0
   -0.8972    2.0768    0.0000 H   0  0  0  0  0  0  0  0  0  0  0  0
   -0.5401    0.3314    0.0000 C   0  0  0  0  0  0  0  0  0  0  0  0
    0.2465    0.5801    0.0000 H   0  0  0  0  0  0  0  0  0  0  0  0
    0.0000   -0.2923    0.0000 C   0  0  0  0  0  0  0  0  0  0  0  0
    0.5401   -0.9159    0.0000 H   0  0  0  0  0  0  0  0  0  0  0  0
    1.0802   -1.5395    0.0000 C   0  0  0  0  0  0  0  0  0  0  0  0
    1.6203   -2.1632    0.0000 C   0  0  0  0  0  0  0  0  0  0  0  0
    1.3502   -2.9427    0.0000 O   0  0  0  0  0  0  0  0  0  0  0  0
    2.4304   -2.0073    0.0000 N   0  0  0  0  0  0  0  0  0  0  0  0
    2.9705   -2.6309    0.0000 C   0  0  0  0  0  0  0  0  0  0  0  0
    3.7806   -2.4750    0.0000 C   0  0  0  0  0  0  0  0  0  0  0  0
    4.3207   -3.0986    0.0000 C   0  0  0  0  0  0  0  0  0  0  0  0
    5.1308   -2.9427    0.0000 C   0  0  0  0  0  0  0  0  0  0  0  0
    5.4009   -2.1632    0.0000 H   0  0  0  0  0  0  0  0  0  0  0  0
    5.6709   -3.5664    0.0000 C   0  0  0  0  0  0  0  0  0  0  0  0
    6.4811   -3.4105    0.0000 H   0  0  0  0  0  0  0  0  0  0  0  0
    5.4009   -4.3459    0.0000 C   0  0  0  0  0  0  0  0  0  0  0  0
    5.9410   -4.9696    0.0000 H   0  0  0  0  0  0  0  0  0  0  0  0
    4.5908   -4.5018    0.0000 C   0  0  0  0  0  0  0  0  0  0  0  0
    4.3207   -5.2814    0.0000 F   0  0  0  0  0  0  0  0  0  0  0  0
    4.0507   -3.8782    0.0000 C   0  0  0  0  0  0  0  0  0  0  0  0
    3.2405   -4.0341    0.0000 H   0  0  0  0  0  0  0  0  0  0  0  0
    4.3718   -1.8996    0.0000 H   0  0  0  0  0  0  0  0  0  0  0  0
    3.6721   -1.6572    0.0000 H   0  0  0  0  0  0  0  0  0  0  0  0
    2.3793   -3.2063    0.0000 H   0  0  0  0  0  0  0  0  0  0  0  0
    3.0790   -3.4487    0.0000 H   0  0  0  0  0  0  0  0  0  0  0  0
    3.0540   -1.4672    0.0000 H   0  0  0  0  0  0  0  0  0  0  0  0
    1.3502   -0.7600    0.0000 C   0  0  0  0  0  0  0  0  0  0  0  0
    0.8101   -0.1363    0.0000 C   0  0  0  0  0  0  0  0  0  0  0  0
    1.6203    0.0196    0.0000 H   0  0  0  0  0  0  0  0  0  0  0  0
    1.0802    0.6432    0.0000 N   0  0  0  0  0  0  0  0  0  0  0  0
    1.8903    0.7991    0.0000 C   0  0  0  0  0  0  0  0  0  0  0  0
    2.1604    1.5787    0.0000 H   0  0  0  0  0  0  0  0  0  0  0  0
    2.4304    0.1755    0.0000 C   0  0  0  0  0  0  0  0  0  0  0  0
    3.2405    0.3314    0.0000 C   0  0  0  0  0  0  0  0  0  0  0  0
    4.0507    0.4873    0.0000 N   0  0  0  0  0  0  0  0  0  0  0  0
    2.1604   -0.6041    0.0000 C   0  0  0  0  0  0  0  0  0  0  0  0
    2.9399   -0.8741    0.0000 H   0  0  0  0  0  0  0  0  0  0  0  0
    1.8903   -1.3836    0.0000 H   0  0  0  0  0  0  0  0  0  0  0  0
    0.8101   -2.3191    0.0000 H   0  0  0  0  0  0  0  0  0  0  0  0
   -0.5401   -4.0341    0.0000 H   0  0  0  0  0  0  0  0  0  0  0  0
    0.8101   -4.5018    0.0000 H   0  0  0  0  0  0  0  0  0  0  0  0
  1  2  2  0  0  0  0
  2  3  1  0  0  0  0
  3  4  2  0  0  0  0
  3  5  1  0  0  0  0
  5  6  1  0  0  0  0
  6  7  2  0  0  0  0
  7  8  1  0  0  0  0
  7  9  1  0  0  0  0
  9 10  1  0  0  0  0
  9 11  2  0  0  0  0
 11 12  1  0  0  0  0
 12 13  1  0  0  0  0
 13 14  1  0  0  0  0
 13 15  1  0  0  0  0
 13 16  1  0  0  0  0
 12 17  1  0  0  0  0
 17 18  1  0  0  0  0
 17 19  1  0  0  0  0
 17 20  1  0  0  0  0
 12 21  1  0  0  0  0
 21 22  1  0  0  0  0
 21 23  1  0  0  0  0
 21 24  1  0  0  0  0
 11 25  1  0  0  0  0
 25 26  1  0  0  0  0
 25 27  2  0  0  0  0
  6 27  1  0  0  0  0
 27 28  1  0  0  0  0
  5 29  1  0  0  0  0
 29 30  1  0  0  0  0
 30 31  2  0  0  0  0
 30 32  1  0  0  0  0
 32 33  1  0  0  0  0
 33 34  1  0  0  0  0
 34 35  1  0  0  0  0
 35 36  2  0  0  0  0
 36 37  1  0  0  0  0
 36 38  1  0  0  0  0
 38 39  1  0  0  0  0
 38 40  2  0  0  0  0
 40 41  1  0  0  0  0
 40 42  1  0  0  0  0
 42 43  1  0  0  0  0
 42 44  2  0  0  0  0
 35 44  1  0  0  0  0
 44 45  1  0  0  0  0
 34 46  1  0  0  0  0
 34 47  1  0  0  0  0
 33 48  1  0  0  0  0
 33 49  1  0  0  0  0
 32 50  1  0  0  0  0
 29 51  1  0  0  0  0
 51 52  2  0  0  0  0
 52 53  1  0  0  0  0
 52 54  1  0  0  0  0
 54 55  2  0  0  0  0
 55 56  1  0  0  0  0
 55 57  1  0  0  0  0
 57 58  1  0  0  0  0
 58 59  3  0  0  0  0
 57 60  2  0  0  0  0
 51 60  1  0  0  0  0
 60 61  1  0  0  0  0
 29 62  1  0  0  0  0
  2 63  1  0  0  0  0
  1 64  1  0  0  0  0
  1 65  1  0  0  0  0
M  END
> <Potency>
7.47776972047852

> <pIC50>
5.126227913167538

> <Outcome>
Active

> <is_active>
1

$$$$

  Mrv1921 08232120312D          

 35 37  0  0  0  0            999 V2000
    1.8414   -0.5868    0.0000 O   0  0  0  0  0  0  0  0  0  0  0  0
    1.1270   -0.1743    0.0000 C   0  0  0  0  0  0  0  0  0  0  0  0
    0.4125   -0.5868    0.0000 C   0  0  0  0  0  0  0  0  0  0  0  0
    0.4125   -1.4118    0.0000 C   0  0  0  0  0  0  0  0  0  0  0  0
    1.1270   -1.8243    0.0000 C   0  0  0  0  0  0  0  0  0  0  0  0
    1.8414   -1.4118    0.0000 H   0  0  0  0  0  0  0  0  0  0  0  0
    1.1270   -2.6493    0.0000 C   0  0  0  0  0  0  0  0  0  0  0  0
    1.8414   -3.0618    0.0000 H   0  0  0  0  0  0  0  0  0  0  0  0
    0.4125   -3.0618    0.0000 C   0  0  0  0  0  0  0  0  0  0  0  0
    0.4125   -3.8868    0.0000 H   0  0  0  0  0  0  0  0  0  0  0  0
   -0.3020   -2.6493    0.0000 C   0  0  0  0  0  0  0  0  0  0  0  0
   -1.0164   -3.0618    0.0000 Cl  0  0  0  0  0  0  0  0  0  0  0  0
   -0.3020   -1.8243    0.0000 C   0  0  0  0  0  0  0  0  0  0  0  0
   -1.0164   -1.4118    0.0000 H   0  0  0  0  0  0  0  0  0  0  0  0
   -0.0408    0.1024    0.0000 H   0  0  0  0  0  0  0  0  0  0  0  0
   -0.4111   -0.5389    0.0000 H   0  0  0  0  0  0  0  0  0  0  0  0
    1.1270    0.6507    0.0000 N   0  0  0  0  0  0  0  0  0  0  0  0
    1.8414    1.0632    0.0000 C   0  0  0  0  0  0  0  0  0  0  0  0
    1.8414    1.8882    0.0000 C   0  0  0  0  0  0  0  0  0  0  0  0
    1.1270    2.3007    0.0000 H   0  0  0  0  0  0  0  0  0  0  0  0
    2.5559    2.3007    0.0000 N   0  0  0  0  0  0  0  0  0  0  0  0
    3.2704    1.8882    0.0000 C   0  0  0  0  0  0  0  0  0  0  0  0
    3.9849    2.3007    0.0000 H   0  0  0  0  0  0  0  0  0  0  0  0
    3.2704    1.0632    0.0000 C   0  0  0  0  0  0  0  0  0  0  0  0
    3.9849    0.6507    0.0000 H   0  0  0  0  0  0  0  0  0  0  0  0
    2.5559    0.6507    0.0000 C   0  0  0  0  0  0  0  0  0  0  0  0
    2.5559   -0.1743    0.0000 C   0  0  0  0  0  0  0  0  0  0  0  0
    2.9684   -0.8888    0.0000 C   0  0  0  0  0  0  0  0  0  0  0  0
    3.3387   -1.6261    0.0000 H   0  0  0  0  0  0  0  0  0  0  0  0
    3.7920   -0.8408    0.0000 H   0  0  0  0  0  0  0  0  0  0  0  0
    2.1434   -0.8888    0.0000 C   0  0  0  0  0  0  0  0  0  0  0  0
    2.5559   -1.6033    0.0000 H   0  0  0  0  0  0  0  0  0  0  0  0
    1.3255   -0.9965    0.0000 H   0  0  0  0  0  0  0  0  0  0  0  0
    3.3528    0.0392    0.0000 H   0  0  0  0  0  0  0  0  0  0  0  0
    0.4125    1.0632    0.0000 H   0  0  0  0  0  0  0  0  0  0  0  0
  1  2  2  0  0  0  0
  2  3  1  0  0  0  0
  3  4  1  0  0  0  0
  4  5  2  0  0  0  0
  5  6  1  0  0  0  0
  5  7  1  0  0  0  0
  7  8  1  0  0  0  0
  7  9  2  0  0  0  0
  9 10  1  0  0  0  0
  9 11  1  0  0  0  0
 11 12  1  0  0  0  0
 11 13  2  0  0  0  0
  4 13  1  0  0  0  0
 13 14  1  0  0  0  0
  3 15  1  0  0  0  0
  3 16  1  0  0  0  0
  2 17  1  0  0  0  0
 17 18  1  0  0  0  0
 18 19  2  0  0  0  0
 19 20  1  0  0  0  0
 19 21  1  0  0  0  0
 21 22  2  0  0  0  0
 22 23  1  0  0  0  0
 22 24  1  0  0  0  0
 24 25  1  0  0  0  0
 24 26  2  0  0  0  0
 18 26  1  0  0  0  0
 26 27  1  0  0  0  0
 27 28  1  0  0  0  0
 28 29  1  0  0  0  0
 28 30  1  0  0  0  0
 28 31  1  0  0  0  0
 27 31  1  0  0  0  0
 31 32  1  0  0  0  0
 31 33  1  0  0  0  0
 27 34  1  0  0  0  0
 17 35  1  0  0  0  0
M  END
> <Potency>
7.1736359117104

> <pIC50>
5.144260669135888

> <Outcome>
Active

> <is_active>
1

$$$$

  Mrv1921 08232120312D          

 37 39  0  0  0  0            999 V2000
    0.0000   -1.6500    0.0000 C   0  0  0  0  0  0  0  0  0  0  0  0
    0.7145   -1.2375    0.0000 C   0  0  0  0  0  0  0  0  0  0  0  0
    0.7145   -0.4125    0.0000 C   0  0  0  0  0  0  0  0  0  0  0  0
    0.0000    0.0000    0.0000 H   0  0  0  0  0  0  0  0  0  0  0  0
    1.4289    0.0000    0.0000 C   0  0  0  0  0  0  0  0  0  0  0  0
    1.4289    0.8250    0.0000 H   0  0  0  0  0  0  0  0  0  0  0  0
    2.1434   -0.4125    0.0000 C   0  0  0  0  0  0  0  0  0  0  0  0
    2.8579    0.0000    0.0000 C   0  0  0  0  0  0  0  0  0  0  0  0
    3.5724   -0.4125    0.0000 N   0  0  0  0  0  0  0  0  0  0  0  0
    3.5724   -1.2375    0.0000 C   0  0  0  0  0  0  0  0  0  0  0  0
    2.8579   -1.6500    0.0000 C   0  0  0  0  0  0  0  0  0  0  0  0
    2.8579   -2.4750    0.0000 N   0  0  0  0  0  0  0  0  0  0  0  0
    2.1434   -2.8875    0.0000 C   0  0  0  0  0  0  0  0  0  0  0  0
    1.4289   -2.4750    0.0000 O   0  0  0  0  0  0  0  0  0  0  0  0
    2.1434   -3.7125    0.0000 C   0  0  0  0  0  0  0  0  0  0  0  0
    1.4289   -4.1250    0.0000 C   0  0  0  0  0  0  0  0  0  0  0  0
    1.4289   -4.9500    0.0000 C   0  0  0  0  0  0  0  0  0  0  0  0
    2.1434   -5.3625    0.0000 H   0  0  0  0  0  0  0  0  0  0  0  0
    0.7145   -5.3625    0.0000 C   0  0  0  0  0  0  0  0  0  0  0  0
    0.7145   -6.1875    0.0000 H   0  0  0  0  0  0  0  0  0  0  0  0
   -0.0000   -4.9500    0.0000 C   0  0  0  0  0  0  0  0  0  0  0  0
   -0.7145   -5.3625    0.0000 H   0  0  0  0  0  0  0  0  0  0  0  0
    0.0000   -4.1250    0.0000 C   0  0  0  0  0  0  0  0  0  0  0  0
   -0.7145   -3.7125    0.0000 Cl  0  0  0  0  0  0  0  0  0  0  0  0
    0.7145   -3.7125    0.0000 C   0  0  0  0  0  0  0  0  0  0  0  0
    0.7145   -2.8875    0.0000 H   0  0  0  0  0  0  0  0  0  0  0  0
    2.5968   -4.4018    0.0000 H   0  0  0  0  0  0  0  0  0  0  0  0
    2.9670   -3.7605    0.0000 H   0  0  0  0  0  0  0  0  0  0  0  0
    3.5724   -2.8875    0.0000 H   0  0  0  0  0  0  0  0  0  0  0  0
    2.1434   -1.2375    0.0000 C   0  0  0  0  0  0  0  0  0  0  0  0
    1.4289   -1.6500    0.0000 C   0  0  0  0  0  0  0  0  0  0  0  0
    0.7145   -2.0625    0.0000 H   0  0  0  0  0  0  0  0  0  0  0  0
    4.2868   -1.6500    0.0000 H   0  0  0  0  0  0  0  0  0  0  0  0
    2.8579    0.8250    0.0000 H   0  0  0  0  0  0  0  0  0  0  0  0
   -0.4125   -0.9355    0.0000 H   0  0  0  0  0  0  0  0  0  0  0  0
   -0.7145   -2.0625    0.0000 H   0  0  0  0  0  0  0  0  0  0  0  0
    0.4125   -2.3645    0.0000 H   0  0  0  0  0  0  0  0  0  0  0  0
  1  2  1  0  0  0  0
  2  3  2  0  0  0  0
  3  4  1  0  0  0  0
  3  5  1  0  0  0  0
  5  6  1  0  0  0  0
  5  7  2  0  0  0  0
  7  8  1  0  0  0  0
  8  9  2  0  0  0  0
  9 10  1  0  0  0  0
 10 11  2  0  0  0  0
 11 12  1  0  0  0  0
 12 13  1  0  0  0  0
 13 14  2  0  0  0  0
 13 15  1  0  0  0  0
 15 16  1  0  0  0  0
 16 17  2  0  0  0  0
 17 18  1  0  0  0  0
 17 19  1  0  0  0  0
 19 20  1  0  0  0  0
 19 21  2  0  0  0  0
 21 22  1  0  0  0  0
 21 23  1  0  0  0  0
 23 24  1  0  0  0  0
 23 25  2  0  0  0  0
 16 25  1  0  0  0  0
 25 26  1  0  0  0  0
 15 27  1  0  0  0  0
 15 28  1  0  0  0  0
 12 29  1  0  0  0  0
 11 30  1  0  0  0  0
  7 30  1  0  0  0  0
 30 31  2  0  0  0  0
  2 31  1  0  0  0  0
 31 32  1  0  0  0  0
 10 33  1  0  0  0  0
  8 34  1  0  0  0  0
  1 35  1  0  0  0  0
  1 36  1  0  0  0  0
  1 37  1  0  0  0  0
M  END
> <Potency>
0.537082079670846

> <pIC50>
6.269959338091644

> <Outcome>
Active

> <is_active>
1

$$$$

  Mrv1921 08232120312D          

 66 69  0  0  0  0            999 V2000
   -2.4304    1.4228    0.0000 C   0  0  0  0  0  0  0  0  0  0  0  0
   -1.8903    0.7991    0.0000 C   0  0  0  0  0  0  0  0  0  0  0  0
   -2.5140    0.2590    0.0000 C   0  0  0  0  0  0  0  0  0  0  0  0
   -3.2968   -0.0013    0.0000 H   0  0  0  0  0  0  0  0  0  0  0  0
   -2.5730   -0.5639    0.0000 H   0  0  0  0  0  0  0  0  0  0  0  0
   -1.7763   -0.1105    0.0000 H   0  0  0  0  0  0  0  0  0  0  0  0
   -1.2667    1.3392    0.0000 C   0  0  0  0  0  0  0  0  0  0  0  0
   -1.0064    0.5564    0.0000 H   0  0  0  0  0  0  0  0  0  0  0  0
   -0.4438    1.2801    0.0000 H   0  0  0  0  0  0  0  0  0  0  0  0
   -0.8972    2.0768    0.0000 H   0  0  0  0  0  0  0  0  0  0  0  0
   -1.3502    0.1755    0.0000 C   0  0  0  0  0  0  0  0  0  0  0  0
   -0.5401    0.3314    0.0000 C   0  0  0  0  0  0  0  0  0  0  0  0
    0.2465    0.5801    0.0000 H   0  0  0  0  0  0  0  0  0  0  0  0
    0.0000   -0.2923    0.0000 C   0  0  0  0  0  0  0  0  0  0  0  0
    0.5401   -0.9159    0.0000 H   0  0  0  0  0  0  0  0  0  0  0  0
   -0.2700   -1.0718    0.0000 C   0  0  0  0  0  0  0  0  0  0  0  0
    0.2700   -1.6954    0.0000 N   0  0  0  0  0  0  0  0  0  0  0  0
    0.0000   -2.4750    0.0000 C   0  0  0  0  0  0  0  0  0  0  0  0
    0.5401   -3.0986    0.0000 O   0  0  0  0  0  0  0  0  0  0  0  0
   -0.8101   -2.6309    0.0000 C   0  0  0  0  0  0  0  0  0  0  0  0
   -1.1602   -3.3780    0.0000 C   0  0  0  0  0  0  0  0  0  0  0  0
   -0.7616   -4.1003    0.0000 H   0  0  0  0  0  0  0  0  0  0  0  0
   -1.9788   -3.2759    0.0000 C   0  0  0  0  0  0  0  0  0  0  0  0
   -2.5426   -3.8782    0.0000 H   0  0  0  0  0  0  0  0  0  0  0  0
   -2.1348   -2.4658    0.0000 O   0  0  0  0  0  0  0  0  0  0  0  0
   -1.4125   -2.0671    0.0000 N   0  0  0  0  0  0  0  0  0  0  0  0
    1.0802   -1.5395    0.0000 C   0  0  0  0  0  0  0  0  0  0  0  0
    1.6203   -2.1632    0.0000 C   0  0  0  0  0  0  0  0  0  0  0  0
    1.3502   -2.9427    0.0000 O   0  0  0  0  0  0  0  0  0  0  0  0
    2.4304   -2.0073    0.0000 N   0  0  0  0  0  0  0  0  0  0  0  0
    2.9705   -2.6309    0.0000 C   0  0  0  0  0  0  0  0  0  0  0  0
    3.7806   -2.4750    0.0000 C   0  0  0  0  0  0  0  0  0  0  0  0
    4.3207   -3.0986    0.0000 C   0  0  0  0  0  0  0  0  0  0  0  0
    5.1308   -2.9427    0.0000 C   0  0  0  0  0  0  0  0  0  0  0  0
    5.4009   -2.1632    0.0000 H   0  0  0  0  0  0  0  0  0  0  0  0
    5.6709   -3.5664    0.0000 C   0  0  0  0  0  0  0  0  0  0  0  0
    6.4811   -3.4105    0.0000 H   0  0  0  0  0  0  0  0  0  0  0  0
    5.4009   -4.3459    0.0000 C   0  0  0  0  0  0  0  0  0  0  0  0
    5.9410   -4.9696    0.0000 H   0  0  0  0  0  0  0  0  0  0  0  0
    4.5908   -4.5018    0.0000 C   0  0  0  0  0  0  0  0  0  0  0  0
    4.3207   -5.2814    0.0000 F   0  0  0  0  0  0  0  0  0  0  0  0
    4.0507   -3.8782    0.0000 C   0  0  0  0  0  0  0  0  0  0  0  0
    3.2405   -4.0341    0.0000 H   0  0  0  0  0  0  0  0  0  0  0  0
    4.3718   -1.8996    0.0000 H   0  0  0  0  0  0  0  0  0  0  0  0
    3.6721   -1.6572    0.0000 H   0  0  0  0  0  0  0  0  0  0  0  0
    2.3793   -3.2063    0.0000 H   0  0  0  0  0  0  0  0  0  0  0  0
    3.0790   -3.4487    0.0000 H   0  0  0  0  0  0  0  0  0  0  0  0
    2.7004   -1.2277    0.0000 H   0  0  0  0  0  0  0  0  0  0  0  0
    1.3502   -0.7600    0.0000 C   0  0  0  0  0  0  0  0  0  0  0  0
    0.8101   -0.1363    0.0000 C   0  0  0  0  0  0  0  0  0  0  0  0
    1.6203    0.0196    0.0000 H   0  0  0  0  0  0  0  0  0  0  0  0
    1.0802    0.6432    0.0000 C   0  0  0  0  0  0  0  0  0  0  0  0
    0.9709    1.4609    0.0000 H   0  0  0  0  0  0  0  0  0  0  0  0
    1.8903    0.7991    0.0000 C   0  0  0  0  0  0  0  0  0  0  0  0
    2.1604    1.5787    0.0000 H   0  0  0  0  0  0  0  0  0  0  0  0
    2.4304    0.1755    0.0000 N   0  0  0  0  0  0  0  0  0  0  0  0
    2.1604   -0.6041    0.0000 C   0  0  0  0  0  0  0  0  0  0  0  0
    1.8903   -1.3836    0.0000 H   0  0  0  0  0  0  0  0  0  0  0  0
    0.8101   -2.3191    0.0000 H   0  0  0  0  0  0  0  0  0  0  0  0
   -1.0802   -1.2277    0.0000 C   0  0  0  0  0  0  0  0  0  0  0  0
   -1.8935   -1.3660    0.0000 H   0  0  0  0  0  0  0  0  0  0  0  0
   -1.6203   -0.6041    0.0000 C   0  0  0  0  0  0  0  0  0  0  0  0
   -0.8101   -0.4482    0.0000 H   0  0  0  0  0  0  0  0  0  0  0  0
   -1.8068    1.9628    0.0000 H   0  0  0  0  0  0  0  0  0  0  0  0
   -2.9705    2.0464    0.0000 H   0  0  0  0  0  0  0  0  0  0  0  0
   -3.0540    0.8827    0.0000 H   0  0  0  0  0  0  0  0  0  0  0  0
  1  2  1  0  0  0  0
  2  3  1  0  0  0  0
  3  4  1  0  0  0  0
  3  5  1  0  0  0  0
  3  6  1  0  0  0  0
  2  7  1  0  0  0  0
  7  8  1  0  0  0  0
  7  9  1  0  0  0  0
  7 10  1  0  0  0  0
  2 11  1  0  0  0  0
 11 12  2  0  0  0  0
 12 13  1  0  0  0  0
 12 14  1  0  0  0  0
 14 15  1  0  0  0  0
 14 16  2  0  0  0  0
 16 17  1  0  0  0  0
 17 18  1  0  0  0  0
 18 19  2  0  0  0  0
 18 20  1  0  0  0  0
 20 21  1  0  0  0  0
 21 22  1  0  0  0  0
 21 23  2  0  0  0  0
 23 24  1  0  0  0  0
 23 25  1  0  0  0  0
 25 26  1  0  0  0  0
 20 26  2  0  0  0  0
 17 27  1  0  0  0  0
 27 28  1  0  0  0  0
 28 29  2  0  0  0  0
 28 30  1  0  0  0  0
 30 31  1  0  0  0  0
 31 32  1  0  0  0  0
 32 33  1  0  0  0  0
 33 34  2  0  0  0  0
 34 35  1  0  0  0  0
 34 36  1  0  0  0  0
 36 37  1  0  0  0  0
 36 38  2  0  0  0  0
 38 39  1  0  0  0  0
 38 40  1  0  0  0  0
 40 41  1  0  0  0  0
 40 42  2  0  0  0  0
 33 42  1  0  0  0  0
 42 43  1  0  0  0  0
 32 44  1  0  0  0  0
 32 45  1  0  0  0  0
 31 46  1  0  0  0  0
 31 47  1  0  0  0  0
 30 48  1  0  0  0  0
 27 49  1  0  0  0  0
 49 50  2  0  0  0  0
 50 51  1  0  0  0  0
 50 52  1  0  0  0  0
 52 53  1  0  0  0  0
 52 54  2  0  0  0  0
 54 55  1  0  0  0  0
 54 56  1  0  0  0  0
 56 57  2  0  0  0  0
 49 57  1  0  0  0  0
 57 58  1  0  0  0  0
 27 59  1  0  0  0  0
 16 60  1  0  0  0  0
 60 61  1  0  0  0  0
 60 62  2  0  0  0  0
 11 62  1  0  0  0  0
 62 63  1  0  0  0  0
  1 64  1  0  0  0  0
  1 65  1  0  0  0  0
  1 66  1  0  0  0  0
M  END
> <Potency>
4.25798681811551

> <pIC50>
5.370795687385379

> <Outcome>
Active

> <is_active>
1

$$$$

  Mrv1921 08232120312D          

 66 69  0  0  0  0            999 V2000
   -2.4304    1.4228    0.0000 C   0  0  0  0  0  0  0  0  0  0  0  0
   -1.8903    0.7991    0.0000 C   0  0  0  0  0  0  0  0  0  0  0  0
   -2.5140    0.2590    0.0000 C   0  0  0  0  0  0  0  0  0  0  0  0
   -3.2968   -0.0013    0.0000 H   0  0  0  0  0  0  0  0  0  0  0  0
   -2.5730   -0.5639    0.0000 H   0  0  0  0  0  0  0  0  0  0  0  0
   -1.7763   -0.1105    0.0000 H   0  0  0  0  0  0  0  0  0  0  0  0
   -1.2667    1.3392    0.0000 C   0  0  0  0  0  0  0  0  0  0  0  0
   -1.0064    0.5564    0.0000 H   0  0  0  0  0  0  0  0  0  0  0  0
   -0.4438    1.2801    0.0000 H   0  0  0  0  0  0  0  0  0  0  0  0
   -0.8972    2.0768    0.0000 H   0  0  0  0  0  0  0  0  0  0  0  0
   -1.3502    0.1755    0.0000 C   0  0  0  0  0  0  0  0  0  0  0  0
   -0.5401    0.3314    0.0000 C   0  0  0  0  0  0  0  0  0  0  0  0
    0.2465    0.5801    0.0000 H   0  0  0  0  0  0  0  0  0  0  0  0
    0.0000   -0.2923    0.0000 C   0  0  0  0  0  0  0  0  0  0  0  0
    0.5401   -0.9159    0.0000 H   0  0  0  0  0  0  0  0  0  0  0  0
   -0.2700   -1.0718    0.0000 C   0  0  0  0  0  0  0  0  0  0  0  0
    0.2700   -1.6954    0.0000 N   0  0  0  0  0  0  0  0  0  0  0  0
    0.0000   -2.4750    0.0000 C   0  0  0  0  0  0  0  0  0  0  0  0
    0.5401   -3.0986    0.0000 O   0  0  0  0  0  0  0  0  0  0  0  0
   -0.8101   -2.6309    0.0000 C   0  0  0  0  0  0  0  0  0  0  0  0
   -1.1602   -3.3780    0.0000 C   0  0  0  0  0  0  0  0  0  0  0  0
   -0.7616   -4.1003    0.0000 H   0  0  0  0  0  0  0  0  0  0  0  0
   -1.9788   -3.2759    0.0000 S   0  0  0  0  0  0  0  0  0  0  0  0
   -2.1348   -2.4658    0.0000 C   0  0  0  0  0  0  0  0  0  0  0  0
   -2.8818   -2.1157    0.0000 H   0  0  0  0  0  0  0  0  0  0  0  0
   -1.4125   -2.0671    0.0000 N   0  0  0  0  0  0  0  0  0  0  0  0
    1.0802   -1.5395    0.0000 C   0  0  0  0  0  0  0  0  0  0  0  0
    1.6203   -2.1632    0.0000 C   0  0  0  0  0  0  0  0  0  0  0  0
    1.3502   -2.9427    0.0000 O   0  0  0  0  0  0  0  0  0  0  0  0
    2.4304   -2.0073    0.0000 N   0  0  0  0  0  0  0  0  0  0  0  0
    2.9705   -2.6309    0.0000 C   0  0  0  0  0  0  0  0  0  0  0  0
    3.7806   -2.4750    0.0000 C   0  0  0  0  0  0  0  0  0  0  0  0
    4.3207   -3.0986    0.0000 C   0  0  0  0  0  0  0  0  0  0  0  0
    5.1308   -2.9427    0.0000 C   0  0  0  0  0  0  0  0  0  0  0  0
    5.4009   -2.1632    0.0000 H   0  0  0  0  0  0  0  0  0  0  0  0
    5.6709   -3.5664    0.0000 C   0  0  0  0  0  0  0  0  0  0  0  0
    6.4811   -3.4105    0.0000 H   0  0  0  0  0  0  0  0  0  0  0  0
    5.4009   -4.3459    0.0000 C   0  0  0  0  0  0  0  0  0  0  0  0
    5.9410   -4.9696    0.0000 H   0  0  0  0  0  0  0  0  0  0  0  0
    4.5908   -4.5018    0.0000 C   0  0  0  0  0  0  0  0  0  0  0  0
    4.3207   -5.2814    0.0000 F   0  0  0  0  0  0  0  0  0  0  0  0
    4.0507   -3.8782    0.0000 C   0  0  0  0  0  0  0  0  0  0  0  0
    3.2405   -4.0341    0.0000 H   0  0  0  0  0  0  0  0  0  0  0  0
    4.3718   -1.8996    0.0000 H   0  0  0  0  0  0  0  0  0  0  0  0
    3.6721   -1.6572    0.0000 H   0  0  0  0  0  0  0  0  0  0  0  0
    2.3793   -3.2063    0.0000 H   0  0  0  0  0  0  0  0  0  0  0  0
    3.0790   -3.4487    0.0000 H   0  0  0  0  0  0  0  0  0  0  0  0
    2.7004   -1.2277    0.0000 H   0  0  0  0  0  0  0  0  0  0  0  0
    1.3502   -0.7600    0.0000 C   0  0  0  0  0  0  0  0  0  0  0  0
    0.8101   -0.1363    0.0000 C   0  0  0  0  0  0  0  0  0  0  0  0
    1.6203    0.0196    0.0000 H   0  0  0  0  0  0  0  0  0  0  0  0
    1.0802    0.6432    0.0000 C   0  0  0  0  0  0  0  0  0  0  0  0
    0.9709    1.4609    0.0000 H   0  0  0  0  0  0  0  0  0  0  0  0
    1.8903    0.7991    0.0000 C   0  0  0  0  0  0  0  0  0  0  0  0
    2.1604    1.5787    0.0000 H   0  0  0  0  0  0  0  0  0  0  0  0
    2.4304    0.1755    0.0000 N   0  0  0  0  0  0  0  0  0  0  0  0
    2.1604   -0.6041    0.0000 C   0  0  0  0  0  0  0  0  0  0  0  0
    1.8903   -1.3836    0.0000 H   0  0  0  0  0  0  0  0  0  0  0  0
    0.8101   -2.3191    0.0000 H   0  0  0  0  0  0  0  0  0  0  0  0
   -1.0802   -1.2277    0.0000 C   0  0  0  0  0  0  0  0  0  0  0  0
   -1.8935   -1.3660    0.0000 H   0  0  0  0  0  0  0  0  0  0  0  0
   -1.6203   -0.6041    0.0000 C   0  0  0  0  0  0  0  0  0  0  0  0
   -0.8101   -0.4482    0.0000 H   0  0  0  0  0  0  0  0  0  0  0  0
   -1.8068    1.9628    0.0000 H   0  0  0  0  0  0  0  0  0  0  0  0
   -2.9705    2.0464    0.0000 H   0  0  0  0  0  0  0  0  0  0  0  0
   -3.0540    0.8827    0.0000 H   0  0  0  0  0  0  0  0  0  0  0  0
  1  2  1  0  0  0  0
  2  3  1  0  0  0  0
  3  4  1  0  0  0  0
  3  5  1  0  0  0  0
  3  6  1  0  0  0  0
  2  7  1  0  0  0  0
  7  8  1  0  0  0  0
  7  9  1  0  0  0  0
  7 10  1  0  0  0  0
  2 11  1  0  0  0  0
 11 12  2  0  0  0  0
 12 13  1  0  0  0  0
 12 14  1  0  0  0  0
 14 15  1  0  0  0  0
 14 16  2  0  0  0  0
 16 17  1  0  0  0  0
 17 18  1  0  0  0  0
 18 19  2  0  0  0  0
 18 20  1  0  0  0  0
 20 21  2  0  0  0  0
 21 22  1  0  0  0  0
 21 23  1  0  0  0  0
 23 24  1  0  0  0  0
 24 25  1  0  0  0  0
 24 26  2  0  0  0  0
 20 26  1  0  0  0  0
 17 27  1  0  0  0  0
 27 28  1  0  0  0  0
 28 29  2  0  0  0  0
 28 30  1  0  0  0  0
 30 31  1  0  0  0  0
 31 32  1  0  0  0  0
 32 33  1  0  0  0  0
 33 34  2  0  0  0  0
 34 35  1  0  0  0  0
 34 36  1  0  0  0  0
 36 37  1  0  0  0  0
 36 38  2  0  0  0  0
 38 39  1  0  0  0  0
 38 40  1  0  0  0  0
 40 41  1  0  0  0  0
 40 42  2  0  0  0  0
 33 42  1  0  0  0  0
 42 43  1  0  0  0  0
 32 44  1  0  0  0  0
 32 45  1  0  0  0  0
 31 46  1  0  0  0  0
 31 47  1  0  0  0  0
 30 48  1  0  0  0  0
 27 49  1  0  0  0  0
 49 50  2  0  0  0  0
 50 51  1  0  0  0  0
 50 52  1  0  0  0  0
 52 53  1  0  0  0  0
 52 54  2  0  0  0  0
 54 55  1  0  0  0  0
 54 56  1  0  0  0  0
 56 57  2  0  0  0  0
 49 57  1  0  0  0  0
 57 58  1  0  0  0  0
 27 59  1  0  0  0  0
 16 60  1  0  0  0  0
 60 61  1  0  0  0  0
 60 62  2  0  0  0  0
 11 62  1  0  0  0  0
 62 63  1  0  0  0  0
  1 64  1  0  0  0  0
  1 65  1  0  0  0  0
  1 66  1  0  0  0  0
M  END
> <Potency>
0.891433945146303

> <pIC50>
6.049910832321822

> <Outcome>
Active

> <is_active>
1

$$$$

  Mrv1921 08232120312D          

 35 37  0  0  0  0            999 V2000
   -0.7145   -7.0125    0.0000 N   0  0  0  0  0  0  0  0  0  0  0  0
   -0.7145   -6.1875    0.0000 C   0  0  0  0  0  0  0  0  0  0  0  0
   -0.7145   -5.3625    0.0000 C   0  0  0  0  0  0  0  0  0  0  0  0
   -1.4289   -4.9500    0.0000 C   0  0  0  0  0  0  0  0  0  0  0  0
   -2.1434   -5.3625    0.0000 H   0  0  0  0  0  0  0  0  0  0  0  0
   -1.4289   -4.1250    0.0000 C   0  0  0  0  0  0  0  0  0  0  0  0
   -2.1434   -3.7125    0.0000 H   0  0  0  0  0  0  0  0  0  0  0  0
   -0.7145   -3.7125    0.0000 C   0  0  0  0  0  0  0  0  0  0  0  0
   -0.7145   -2.8875    0.0000 H   0  0  0  0  0  0  0  0  0  0  0  0
    0.0000   -4.1250    0.0000 C   0  0  0  0  0  0  0  0  0  0  0  0
    0.7145   -3.7125    0.0000 C   0  0  0  0  0  0  0  0  0  0  0  0
    0.7145   -2.8875    0.0000 C   0  0  0  0  0  0  0  0  0  0  0  0
    0.0000   -2.4750    0.0000 O   0  0  0  0  0  0  0  0  0  0  0  0
    1.4289   -2.4750    0.0000 N   0  0  0  0  0  0  0  0  0  0  0  0
    1.4289   -1.6500    0.0000 C   0  0  0  0  0  0  0  0  0  0  0  0
    0.7145   -1.2375    0.0000 C   0  0  0  0  0  0  0  0  0  0  0  0
    0.0000   -1.6500    0.0000 H   0  0  0  0  0  0  0  0  0  0  0  0
    0.7145   -0.4125    0.0000 N   0  0  0  0  0  0  0  0  0  0  0  0
    1.4289    0.0000    0.0000 C   0  0  0  0  0  0  0  0  0  0  0  0
    1.4289    0.8250    0.0000 H   0  0  0  0  0  0  0  0  0  0  0  0
    2.1434   -0.4125    0.0000 C   0  0  0  0  0  0  0  0  0  0  0  0
    2.8579    0.0000    0.0000 C   0  0  0  0  0  0  0  0  0  0  0  0
    3.5724   -0.4125    0.0000 C   0  0  0  0  0  0  0  0  0  0  0  0
    3.5724   -1.2375    0.0000 C   0  0  0  0  0  0  0  0  0  0  0  0
    2.8579   -1.6500    0.0000 C   0  0  0  0  0  0  0  0  0  0  0  0
    2.8579   -2.4750    0.0000 H   0  0  0  0  0  0  0  0  0  0  0  0
    2.1434   -1.2375    0.0000 C   0  0  0  0  0  0  0  0  0  0  0  0
    4.2868   -1.6500    0.0000 H   0  0  0  0  0  0  0  0  0  0  0  0
    4.2868   -0.0000    0.0000 H   0  0  0  0  0  0  0  0  0  0  0  0
    2.8579    0.8250    0.0000 H   0  0  0  0  0  0  0  0  0  0  0  0
    2.1434   -2.8875    0.0000 H   0  0  0  0  0  0  0  0  0  0  0  0
    1.1678   -4.4018    0.0000 H   0  0  0  0  0  0  0  0  0  0  0  0
    1.5381   -3.7605    0.0000 H   0  0  0  0  0  0  0  0  0  0  0  0
    0.0000   -4.9500    0.0000 C   0  0  0  0  0  0  0  0  0  0  0  0
    0.7145   -5.3625    0.0000 H   0  0  0  0  0  0  0  0  0  0  0  0
  1  2  3  0  0  0  0
  2  3  1  0  0  0  0
  3  4  2  0  0  0  0
  4  5  1  0  0  0  0
  4  6  1  0  0  0  0
  6  7  1  0  0  0  0
  6  8  2  0  0  0  0
  8  9  1  0  0  0  0
  8 10  1  0  0  0  0
 10 11  1  0  0  0  0
 11 12  1  0  0  0  0
 12 13  2  0  0  0  0
 12 14  1  0  0  0  0
 14 15  1  0  0  0  0
 15 16  2  0  0  0  0
 16 17  1  0  0  0  0
 16 18  1  0  0  0  0
 18 19  2  0  0  0  0
 19 20  1  0  0  0  0
 19 21  1  0  0  0  0
 21 22  2  0  0  0  0
 22 23  1  0  0  0  0
 23 24  2  0  0  0  0
 24 25  1  0  0  0  0
 25 26  1  0  0  0  0
 25 27  2  0  0  0  0
 15 27  1  0  0  0  0
 21 27  1  0  0  0  0
 24 28  1  0  0  0  0
 23 29  1  0  0  0  0
 22 30  1  0  0  0  0
 14 31  1  0  0  0  0
 11 32  1  0  0  0  0
 11 33  1  0  0  0  0
 10 34  2  0  0  0  0
  3 34  1  0  0  0  0
 34 35  1  0  0  0  0
M  END
> <Potency>
1.82792177130736

> <pIC50>
5.738042394497438

> <Outcome>
Active

> <is_active>
1

$$$$

  Mrv1921 08232120312D          

 34 36  0  0  0  0            999 V2000
    0.0000   -2.4750    0.0000 O   0  0  0  0  0  0  0  0  0  0  0  0
    0.7145   -2.8875    0.0000 C   0  0  0  0  0  0  0  0  0  0  0  0
    0.7145   -3.7125    0.0000 C   0  0  0  0  0  0  0  0  0  0  0  0
    0.0000   -4.1250    0.0000 C   0  0  0  0  0  0  0  0  0  0  0  0
    0.0000   -4.9500    0.0000 C   0  0  0  0  0  0  0  0  0  0  0  0
    0.7145   -5.3625    0.0000 H   0  0  0  0  0  0  0  0  0  0  0  0
   -0.7145   -5.3625    0.0000 C   0  0  0  0  0  0  0  0  0  0  0  0
   -0.7145   -6.1875    0.0000 F   0  0  0  0  0  0  0  0  0  0  0  0
   -1.4289   -4.9500    0.0000 C   0  0  0  0  0  0  0  0  0  0  0  0
   -2.1434   -5.3625    0.0000 H   0  0  0  0  0  0  0  0  0  0  0  0
   -1.4289   -4.1250    0.0000 C   0  0  0  0  0  0  0  0  0  0  0  0
   -2.1434   -3.7125    0.0000 Cl  0  0  0  0  0  0  0  0  0  0  0  0
   -0.7145   -3.7125    0.0000 C   0  0  0  0  0  0  0  0  0  0  0  0
   -0.7145   -2.8875    0.0000 H   0  0  0  0  0  0  0  0  0  0  0  0
    1.1678   -4.4018    0.0000 H   0  0  0  0  0  0  0  0  0  0  0  0
    1.5381   -3.7605    0.0000 H   0  0  0  0  0  0  0  0  0  0  0  0
    1.4289   -2.4750    0.0000 N   0  0  0  0  0  0  0  0  0  0  0  0
    1.4289   -1.6500    0.0000 C   0  0  0  0  0  0  0  0  0  0  0  0
    0.7145   -1.2375    0.0000 C   0  0  0  0  0  0  0  0  0  0  0  0
    0.0000   -1.6500    0.0000 H   0  0  0  0  0  0  0  0  0  0  0  0
    0.7145   -0.4125    0.0000 N   0  0  0  0  0  0  0  0  0  0  0  0
    1.4289    0.0000    0.0000 C   0  0  0  0  0  0  0  0  0  0  0  0
    1.4289    0.8250    0.0000 H   0  0  0  0  0  0  0  0  0  0  0  0
    2.1434   -0.4125    0.0000 C   0  0  0  0  0  0  0  0  0  0  0  0
    2.8579    0.0000    0.0000 C   0  0  0  0  0  0  0  0  0  0  0  0
    3.5724   -0.4125    0.0000 C   0  0  0  0  0  0  0  0  0  0  0  0
    3.5724   -1.2375    0.0000 C   0  0  0  0  0  0  0  0  0  0  0  0
    2.8579   -1.6500    0.0000 C   0  0  0  0  0  0  0  0  0  0  0  0
    2.8579   -2.4750    0.0000 H   0  0  0  0  0  0  0  0  0  0  0  0
    2.1434   -1.2375    0.0000 C   0  0  0  0  0  0  0  0  0  0  0  0
    4.2868   -1.6500    0.0000 H   0  0  0  0  0  0  0  0  0  0  0  0
    4.2868   -0.0000    0.0000 H   0  0  0  0  0  0  0  0  0  0  0  0
    2.8579    0.8250    0.0000 H   0  0  0  0  0  0  0  0  0  0  0  0
    2.1434   -2.8875    0.0000 H   0  0  0  0  0  0  0  0  0  0  0  0
  1  2  2  0  0  0  0
  2  3  1  0  0  0  0
  3  4  1  0  0  0  0
  4  5  2  0  0  0  0
  5  6  1  0  0  0  0
  5  7  1  0  0  0  0
  7  8  1  0  0  0  0
  7  9  2  0  0  0  0
  9 10  1  0  0  0  0
  9 11  1  0  0  0  0
 11 12  1  0  0  0  0
 11 13  2  0  0  0  0
  4 13  1  0  0  0  0
 13 14  1  0  0  0  0
  3 15  1  0  0  0  0
  3 16  1  0  0  0  0
  2 17  1  0  0  0  0
 17 18  1  0  0  0  0
 18 19  2  0  0  0  0
 19 20  1  0  0  0  0
 19 21  1  0  0  0  0
 21 22  2  0  0  0  0
 22 23  1  0  0  0  0
 22 24  1  0  0  0  0
 24 25  2  0  0  0  0
 25 26  1  0  0  0  0
 26 27  2  0  0  0  0
 27 28  1  0  0  0  0
 28 29  1  0  0  0  0
 28 30  2  0  0  0  0
 18 30  1  0  0  0  0
 24 30  1  0  0  0  0
 27 31  1  0  0  0  0
 26 32  1  0  0  0  0
 25 33  1  0  0  0  0
 17 34  1  0  0  0  0
M  END
> <Potency>
0.382677109410519

> <pIC50>
6.417167515183446

> <Outcome>
Active

> <is_active>
1

$$$$

  Mrv1921 08232120312D          

 34 36  0  0  0  0            999 V2000
    0.0000   -2.4750    0.0000 O   0  0  0  0  0  0  0  0  0  0  0  0
    0.7145   -2.8875    0.0000 C   0  0  0  0  0  0  0  0  0  0  0  0
    0.7145   -3.7125    0.0000 C   0  0  0  0  0  0  0  0  0  0  0  0
    0.0000   -4.1250    0.0000 C   0  0  0  0  0  0  0  0  0  0  0  0
    0.0000   -4.9500    0.0000 C   0  0  0  0  0  0  0  0  0  0  0  0
    0.7145   -5.3625    0.0000 H   0  0  0  0  0  0  0  0  0  0  0  0
   -0.7145   -5.3625    0.0000 C   0  0  0  0  0  0  0  0  0  0  0  0
   -0.7145   -6.1875    0.0000 F   0  0  0  0  0  0  0  0  0  0  0  0
   -1.4289   -4.9500    0.0000 C   0  0  0  0  0  0  0  0  0  0  0  0
   -2.1434   -5.3625    0.0000 H   0  0  0  0  0  0  0  0  0  0  0  0
   -1.4289   -4.1250    0.0000 C   0  0  0  0  0  0  0  0  0  0  0  0
   -2.1434   -3.7125    0.0000 F   0  0  0  0  0  0  0  0  0  0  0  0
   -0.7145   -3.7125    0.0000 C   0  0  0  0  0  0  0  0  0  0  0  0
   -0.7145   -2.8875    0.0000 H   0  0  0  0  0  0  0  0  0  0  0  0
    1.1678   -4.4018    0.0000 H   0  0  0  0  0  0  0  0  0  0  0  0
    1.5381   -3.7605    0.0000 H   0  0  0  0  0  0  0  0  0  0  0  0
    1.4289   -2.4750    0.0000 N   0  0  0  0  0  0  0  0  0  0  0  0
    1.4289   -1.6500    0.0000 C   0  0  0  0  0  0  0  0  0  0  0  0
    0.7145   -1.2375    0.0000 C   0  0  0  0  0  0  0  0  0  0  0  0
    0.0000   -1.6500    0.0000 H   0  0  0  0  0  0  0  0  0  0  0  0
    0.7145   -0.4125    0.0000 N   0  0  0  0  0  0  0  0  0  0  0  0
    1.4289    0.0000    0.0000 C   0  0  0  0  0  0  0  0  0  0  0  0
    1.4289    0.8250    0.0000 H   0  0  0  0  0  0  0  0  0  0  0  0
    2.1434   -0.4125    0.0000 C   0  0  0  0  0  0  0  0  0  0  0  0
    2.8579    0.0000    0.0000 C   0  0  0  0  0  0  0  0  0  0  0  0
    3.5724   -0.4125    0.0000 C   0  0  0  0  0  0  0  0  0  0  0  0
    3.5724   -1.2375    0.0000 C   0  0  0  0  0  0  0  0  0  0  0  0
    2.8579   -1.6500    0.0000 C   0  0  0  0  0  0  0  0  0  0  0  0
    2.8579   -2.4750    0.0000 H   0  0  0  0  0  0  0  0  0  0  0  0
    2.1434   -1.2375    0.0000 C   0  0  0  0  0  0  0  0  0  0  0  0
    4.2868   -1.6500    0.0000 H   0  0  0  0  0  0  0  0  0  0  0  0
    4.2868   -0.0000    0.0000 H   0  0  0  0  0  0  0  0  0  0  0  0
    2.8579    0.8250    0.0000 H   0  0  0  0  0  0  0  0  0  0  0  0
    2.1434   -2.8875    0.0000 H   0  0  0  0  0  0  0  0  0  0  0  0
  1  2  2  0  0  0  0
  2  3  1  0  0  0  0
  3  4  1  0  0  0  0
  4  5  2  0  0  0  0
  5  6  1  0  0  0  0
  5  7  1  0  0  0  0
  7  8  1  0  0  0  0
  7  9  2  0  0  0  0
  9 10  1  0  0  0  0
  9 11  1  0  0  0  0
 11 12  1  0  0  0  0
 11 13  2  0  0  0  0
  4 13  1  0  0  0  0
 13 14  1  0  0  0  0
  3 15  1  0  0  0  0
  3 16  1  0  0  0  0
  2 17  1  0  0  0  0
 17 18  1  0  0  0  0
 18 19  2  0  0  0  0
 19 20  1  0  0  0  0
 19 21  1  0  0  0  0
 21 22  2  0  0  0  0
 22 23  1  0  0  0  0
 22 24  1  0  0  0  0
 24 25  2  0  0  0  0
 25 26  1  0  0  0  0
 26 27  2  0  0  0  0
 27 28  1  0  0  0  0
 28 29  1  0  0  0  0
 28 30  2  0  0  0  0
 18 30  1  0  0  0  0
 24 30  1  0  0  0  0
 27 31  1  0  0  0  0
 26 32  1  0  0  0  0
 25 33  1  0  0  0  0
 17 34  1  0  0  0  0
M  END
> <Potency>
0.569448403287913

> <pIC50>
6.244545620456689

> <Outcome>
Active

> <is_active>
1

$$$$

  Mrv1921 08232120312D          

 66 69  0  0  0  0            999 V2000
   -2.4304    1.4228    0.0000 C   0  0  0  0  0  0  0  0  0  0  0  0
   -1.8903    0.7991    0.0000 C   0  0  0  0  0  0  0  0  0  0  0  0
   -2.5140    0.2590    0.0000 C   0  0  0  0  0  0  0  0  0  0  0  0
   -3.2968   -0.0013    0.0000 H   0  0  0  0  0  0  0  0  0  0  0  0
   -2.5730   -0.5639    0.0000 H   0  0  0  0  0  0  0  0  0  0  0  0
   -1.7763   -0.1105    0.0000 H   0  0  0  0  0  0  0  0  0  0  0  0
   -1.2667    1.3392    0.0000 C   0  0  0  0  0  0  0  0  0  0  0  0
   -1.0064    0.5564    0.0000 H   0  0  0  0  0  0  0  0  0  0  0  0
   -0.4438    1.2801    0.0000 H   0  0  0  0  0  0  0  0  0  0  0  0
   -0.8972    2.0768    0.0000 H   0  0  0  0  0  0  0  0  0  0  0  0
   -1.3502    0.1755    0.0000 C   0  0  0  0  0  0  0  0  0  0  0  0
   -0.5401    0.3314    0.0000 C   0  0  0  0  0  0  0  0  0  0  0  0
    0.2465    0.5801    0.0000 H   0  0  0  0  0  0  0  0  0  0  0  0
    0.0000   -0.2923    0.0000 C   0  0  0  0  0  0  0  0  0  0  0  0
    0.5401   -0.9159    0.0000 H   0  0  0  0  0  0  0  0  0  0  0  0
   -0.2700   -1.0718    0.0000 C   0  0  0  0  0  0  0  0  0  0  0  0
    0.2700   -1.6954    0.0000 N   0  0  0  0  0  0  0  0  0  0  0  0
    0.0000   -2.4750    0.0000 C   0  0  0  0  0  0  0  0  0  0  0  0
    0.5401   -3.0986    0.0000 O   0  0  0  0  0  0  0  0  0  0  0  0
   -0.8101   -2.6309    0.0000 C   0  0  0  0  0  0  0  0  0  0  0  0
   -1.1602   -3.3780    0.0000 N   0  0  0  0  0  0  0  0  0  0  0  0
   -1.9788   -3.2759    0.0000 C   0  0  0  0  0  0  0  0  0  0  0  0
   -2.5426   -3.8782    0.0000 H   0  0  0  0  0  0  0  0  0  0  0  0
   -2.1348   -2.4658    0.0000 C   0  0  0  0  0  0  0  0  0  0  0  0
   -2.8818   -2.1157    0.0000 H   0  0  0  0  0  0  0  0  0  0  0  0
   -1.4125   -2.0671    0.0000 S   0  0  0  0  0  0  0  0  0  0  0  0
    1.0802   -1.5395    0.0000 C   0  0  0  0  0  0  0  0  0  0  0  0
    1.6203   -2.1632    0.0000 C   0  0  0  0  0  0  0  0  0  0  0  0
    1.3502   -2.9427    0.0000 O   0  0  0  0  0  0  0  0  0  0  0  0
    2.4304   -2.0073    0.0000 N   0  0  0  0  0  0  0  0  0  0  0  0
    2.9705   -2.6309    0.0000 C   0  0  0  0  0  0  0  0  0  0  0  0
    3.7806   -2.4750    0.0000 C   0  0  0  0  0  0  0  0  0  0  0  0
    4.3207   -3.0986    0.0000 C   0  0  0  0  0  0  0  0  0  0  0  0
    5.1308   -2.9427    0.0000 C   0  0  0  0  0  0  0  0  0  0  0  0
    5.4009   -2.1632    0.0000 H   0  0  0  0  0  0  0  0  0  0  0  0
    5.6709   -3.5664    0.0000 C   0  0  0  0  0  0  0  0  0  0  0  0
    6.4811   -3.4105    0.0000 H   0  0  0  0  0  0  0  0  0  0  0  0
    5.4009   -4.3459    0.0000 C   0  0  0  0  0  0  0  0  0  0  0  0
    5.9410   -4.9696    0.0000 H   0  0  0  0  0  0  0  0  0  0  0  0
    4.5908   -4.5018    0.0000 C   0  0  0  0  0  0  0  0  0  0  0  0
    4.3207   -5.2814    0.0000 F   0  0  0  0  0  0  0  0  0  0  0  0
    4.0507   -3.8782    0.0000 C   0  0  0  0  0  0  0  0  0  0  0  0
    3.2405   -4.0341    0.0000 H   0  0  0  0  0  0  0  0  0  0  0  0
    4.3718   -1.8996    0.0000 H   0  0  0  0  0  0  0  0  0  0  0  0
    3.6721   -1.6572    0.0000 H   0  0  0  0  0  0  0  0  0  0  0  0
    2.3793   -3.2063    0.0000 H   0  0  0  0  0  0  0  0  0  0  0  0
    3.0790   -3.4487    0.0000 H   0  0  0  0  0  0  0  0  0  0  0  0
    2.7004   -1.2277    0.0000 H   0  0  0  0  0  0  0  0  0  0  0  0
    1.3502   -0.7600    0.0000 C   0  0  0  0  0  0  0  0  0  0  0  0
    0.8101   -0.1363    0.0000 C   0  0  0  0  0  0  0  0  0  0  0  0
    1.6203    0.0196    0.0000 H   0  0  0  0  0  0  0  0  0  0  0  0
    1.0802    0.6432    0.0000 C   0  0  0  0  0  0  0  0  0  0  0  0
    0.9709    1.4609    0.0000 H   0  0  0  0  0  0  0  0  0  0  0  0
    1.8903    0.7991    0.0000 C   0  0  0  0  0  0  0  0  0  0  0  0
    2.1604    1.5787    0.0000 H   0  0  0  0  0  0  0  0  0  0  0  0
    2.4304    0.1755    0.0000 N   0  0  0  0  0  0  0  0  0  0  0  0
    2.1604   -0.6041    0.0000 C   0  0  0  0  0  0  0  0  0  0  0  0
    1.8903   -1.3836    0.0000 H   0  0  0  0  0  0  0  0  0  0  0  0
    0.8101   -2.3191    0.0000 H   0  0  0  0  0  0  0  0  0  0  0  0
   -1.0802   -1.2277    0.0000 C   0  0  0  0  0  0  0  0  0  0  0  0
   -1.8935   -1.3660    0.0000 H   0  0  0  0  0  0  0  0  0  0  0  0
   -1.6203   -0.6041    0.0000 C   0  0  0  0  0  0  0  0  0  0  0  0
   -0.8101   -0.4482    0.0000 H   0  0  0  0  0  0  0  0  0  0  0  0
   -1.8068    1.9628    0.0000 H   0  0  0  0  0  0  0  0  0  0  0  0
   -2.9705    2.0464    0.0000 H   0  0  0  0  0  0  0  0  0  0  0  0
   -3.0540    0.8827    0.0000 H   0  0  0  0  0  0  0  0  0  0  0  0
  1  2  1  0  0  0  0
  2  3  1  0  0  0  0
  3  4  1  0  0  0  0
  3  5  1  0  0  0  0
  3  6  1  0  0  0  0
  2  7  1  0  0  0  0
  7  8  1  0  0  0  0
  7  9  1  0  0  0  0
  7 10  1  0  0  0  0
  2 11  1  0  0  0  0
 11 12  2  0  0  0  0
 12 13  1  0  0  0  0
 12 14  1  0  0  0  0
 14 15  1  0  0  0  0
 14 16  2  0  0  0  0
 16 17  1  0  0  0  0
 17 18  1  0  0  0  0
 18 19  2  0  0  0  0
 18 20  1  0  0  0  0
 20 21  2  0  0  0  0
 21 22  1  0  0  0  0
 22 23  1  0  0  0  0
 22 24  2  0  0  0  0
 24 25  1  0  0  0  0
 24 26  1  0  0  0  0
 20 26  1  0  0  0  0
 17 27  1  0  0  0  0
 27 28  1  0  0  0  0
 28 29  2  0  0  0  0
 28 30  1  0  0  0  0
 30 31  1  0  0  0  0
 31 32  1  0  0  0  0
 32 33  1  0  0  0  0
 33 34  2  0  0  0  0
 34 35  1  0  0  0  0
 34 36  1  0  0  0  0
 36 37  1  0  0  0  0
 36 38  2  0  0  0  0
 38 39  1  0  0  0  0
 38 40  1  0  0  0  0
 40 41  1  0  0  0  0
 40 42  2  0  0  0  0
 33 42  1  0  0  0  0
 42 43  1  0  0  0  0
 32 44  1  0  0  0  0
 32 45  1  0  0  0  0
 31 46  1  0  0  0  0
 31 47  1  0  0  0  0
 30 48  1  0  0  0  0
 27 49  1  0  0  0  0
 49 50  2  0  0  0  0
 50 51  1  0  0  0  0
 50 52  1  0  0  0  0
 52 53  1  0  0  0  0
 52 54  2  0  0  0  0
 54 55  1  0  0  0  0
 54 56  1  0  0  0  0
 56 57  2  0  0  0  0
 49 57  1  0  0  0  0
 57 58  1  0  0  0  0
 27 59  1  0  0  0  0
 16 60  1  0  0  0  0
 60 61  1  0  0  0  0
 60 62  2  0  0  0  0
 11 62  1  0  0  0  0
 62 63  1  0  0  0  0
  1 64  1  0  0  0  0
  1 65  1  0  0  0  0
  1 66  1  0  0  0  0
M  END
> <Potency>
0.800298769007714

> <pIC50>
6.096747851122495

> <Outcome>
Active

> <is_active>
1

$$$$

  Mrv1921 08232120312D          

 66 69  0  0  0  0            999 V2000
   -2.4304    1.4228    0.0000 C   0  0  0  0  0  0  0  0  0  0  0  0
   -1.8903    0.7991    0.0000 C   0  0  0  0  0  0  0  0  0  0  0  0
   -2.5140    0.2590    0.0000 C   0  0  0  0  0  0  0  0  0  0  0  0
   -3.2968   -0.0013    0.0000 H   0  0  0  0  0  0  0  0  0  0  0  0
   -2.5730   -0.5639    0.0000 H   0  0  0  0  0  0  0  0  0  0  0  0
   -1.7763   -0.1105    0.0000 H   0  0  0  0  0  0  0  0  0  0  0  0
   -1.2667    1.3392    0.0000 C   0  0  0  0  0  0  0  0  0  0  0  0
   -1.0064    0.5564    0.0000 H   0  0  0  0  0  0  0  0  0  0  0  0
   -0.4438    1.2801    0.0000 H   0  0  0  0  0  0  0  0  0  0  0  0
   -0.8972    2.0768    0.0000 H   0  0  0  0  0  0  0  0  0  0  0  0
   -1.3502    0.1755    0.0000 C   0  0  0  0  0  0  0  0  0  0  0  0
   -0.5401    0.3314    0.0000 C   0  0  0  0  0  0  0  0  0  0  0  0
    0.2465    0.5801    0.0000 H   0  0  0  0  0  0  0  0  0  0  0  0
    0.0000   -0.2923    0.0000 C   0  0  0  0  0  0  0  0  0  0  0  0
    0.5401   -0.9159    0.0000 H   0  0  0  0  0  0  0  0  0  0  0  0
   -0.2700   -1.0718    0.0000 C   0  0  0  0  0  0  0  0  0  0  0  0
    0.2700   -1.6954    0.0000 N   0  0  0  0  0  0  0  0  0  0  0  0
    0.0000   -2.4750    0.0000 C   0  0  0  0  0  0  0  0  0  0  0  0
    0.5401   -3.0986    0.0000 O   0  0  0  0  0  0  0  0  0  0  0  0
   -0.8101   -2.6309    0.0000 C   0  0  0  0  0  0  0  0  0  0  0  0
   -1.1602   -3.3780    0.0000 C   0  0  0  0  0  0  0  0  0  0  0  0
   -0.7616   -4.1003    0.0000 H   0  0  0  0  0  0  0  0  0  0  0  0
   -1.9788   -3.2759    0.0000 O   0  0  0  0  0  0  0  0  0  0  0  0
   -2.1348   -2.4658    0.0000 C   0  0  0  0  0  0  0  0  0  0  0  0
   -2.8818   -2.1157    0.0000 H   0  0  0  0  0  0  0  0  0  0  0  0
   -1.4125   -2.0671    0.0000 N   0  0  0  0  0  0  0  0  0  0  0  0
    1.0802   -1.5395    0.0000 C   0  0  0  0  0  0  0  0  0  0  0  0
    1.6203   -2.1632    0.0000 C   0  0  0  0  0  0  0  0  0  0  0  0
    1.3502   -2.9427    0.0000 O   0  0  0  0  0  0  0  0  0  0  0  0
    2.4304   -2.0073    0.0000 N   0  0  0  0  0  0  0  0  0  0  0  0
    2.9705   -2.6309    0.0000 C   0  0  0  0  0  0  0  0  0  0  0  0
    3.7806   -2.4750    0.0000 C   0  0  0  0  0  0  0  0  0  0  0  0
    4.3207   -3.0986    0.0000 C   0  0  0  0  0  0  0  0  0  0  0  0
    5.1308   -2.9427    0.0000 C   0  0  0  0  0  0  0  0  0  0  0  0
    5.4009   -2.1632    0.0000 H   0  0  0  0  0  0  0  0  0  0  0  0
    5.6709   -3.5664    0.0000 C   0  0  0  0  0  0  0  0  0  0  0  0
    6.4811   -3.4105    0.0000 H   0  0  0  0  0  0  0  0  0  0  0  0
    5.4009   -4.3459    0.0000 C   0  0  0  0  0  0  0  0  0  0  0  0
    5.9410   -4.9696    0.0000 H   0  0  0  0  0  0  0  0  0  0  0  0
    4.5908   -4.5018    0.0000 C   0  0  0  0  0  0  0  0  0  0  0  0
    4.3207   -5.2814    0.0000 F   0  0  0  0  0  0  0  0  0  0  0  0
    4.0507   -3.8782    0.0000 C   0  0  0  0  0  0  0  0  0  0  0  0
    3.2405   -4.0341    0.0000 H   0  0  0  0  0  0  0  0  0  0  0  0
    4.3718   -1.8996    0.0000 H   0  0  0  0  0  0  0  0  0  0  0  0
    3.6721   -1.6572    0.0000 H   0  0  0  0  0  0  0  0  0  0  0  0
    2.3793   -3.2063    0.0000 H   0  0  0  0  0  0  0  0  0  0  0  0
    3.0790   -3.4487    0.0000 H   0  0  0  0  0  0  0  0  0  0  0  0
    2.7004   -1.2277    0.0000 H   0  0  0  0  0  0  0  0  0  0  0  0
    1.3502   -0.7600    0.0000 C   0  0  0  0  0  0  0  0  0  0  0  0
    0.8101   -0.1363    0.0000 C   0  0  0  0  0  0  0  0  0  0  0  0
    1.6203    0.0196    0.0000 H   0  0  0  0  0  0  0  0  0  0  0  0
    1.0802    0.6432    0.0000 C   0  0  0  0  0  0  0  0  0  0  0  0
    0.9709    1.4609    0.0000 H   0  0  0  0  0  0  0  0  0  0  0  0
    1.8903    0.7991    0.0000 C   0  0  0  0  0  0  0  0  0  0  0  0
    2.1604    1.5787    0.0000 H   0  0  0  0  0  0  0  0  0  0  0  0
    2.4304    0.1755    0.0000 N   0  0  0  0  0  0  0  0  0  0  0  0
    2.1604   -0.6041    0.0000 C   0  0  0  0  0  0  0  0  0  0  0  0
    1.8903   -1.3836    0.0000 H   0  0  0  0  0  0  0  0  0  0  0  0
    0.8101   -2.3191    0.0000 H   0  0  0  0  0  0  0  0  0  0  0  0
   -1.0802   -1.2277    0.0000 C   0  0  0  0  0  0  0  0  0  0  0  0
   -1.8935   -1.3660    0.0000 H   0  0  0  0  0  0  0  0  0  0  0  0
   -1.6203   -0.6041    0.0000 C   0  0  0  0  0  0  0  0  0  0  0  0
   -0.8101   -0.4482    0.0000 H   0  0  0  0  0  0  0  0  0  0  0  0
   -1.8068    1.9628    0.0000 H   0  0  0  0  0  0  0  0  0  0  0  0
   -2.9705    2.0464    0.0000 H   0  0  0  0  0  0  0  0  0  0  0  0
   -3.0540    0.8827    0.0000 H   0  0  0  0  0  0  0  0  0  0  0  0
  1  2  1  0  0  0  0
  2  3  1  0  0  0  0
  3  4  1  0  0  0  0
  3  5  1  0  0  0  0
  3  6  1  0  0  0  0
  2  7  1  0  0  0  0
  7  8  1  0  0  0  0
  7  9  1  0  0  0  0
  7 10  1  0  0  0  0
  2 11  1  0  0  0  0
 11 12  2  0  0  0  0
 12 13  1  0  0  0  0
 12 14  1  0  0  0  0
 14 15  1  0  0  0  0
 14 16  2  0  0  0  0
 16 17  1  0  0  0  0
 17 18  1  0  0  0  0
 18 19  2  0  0  0  0
 18 20  1  0  0  0  0
 20 21  2  0  0  0  0
 21 22  1  0  0  0  0
 21 23  1  0  0  0  0
 23 24  1  0  0  0  0
 24 25  1  0  0  0  0
 24 26  2  0  0  0  0
 20 26  1  0  0  0  0
 17 27  1  0  0  0  0
 27 28  1  0  0  0  0
 28 29  2  0  0  0  0
 28 30  1  0  0  0  0
 30 31  1  0  0  0  0
 31 32  1  0  0  0  0
 32 33  1  0  0  0  0
 33 34  2  0  0  0  0
 34 35  1  0  0  0  0
 34 36  1  0  0  0  0
 36 37  1  0  0  0  0
 36 38  2  0  0  0  0
 38 39  1  0  0  0  0
 38 40  1  0  0  0  0
 40 41  1  0  0  0  0
 40 42  2  0  0  0  0
 33 42  1  0  0  0  0
 42 43  1  0  0  0  0
 32 44  1  0  0  0  0
 32 45  1  0  0  0  0
 31 46  1  0  0  0  0
 31 47  1  0  0  0  0
 30 48  1  0  0  0  0
 27 49  1  0  0  0  0
 49 50  2  0  0  0  0
 50 51  1  0  0  0  0
 50 52  1  0  0  0  0
 52 53  1  0  0  0  0
 52 54  2  0  0  0  0
 54 55  1  0  0  0  0
 54 56  1  0  0  0  0
 56 57  2  0  0  0  0
 49 57  1  0  0  0  0
 57 58  1  0  0  0  0
 27 59  1  0  0  0  0
 16 60  1  0  0  0  0
 60 61  1  0  0  0  0
 60 62  2  0  0  0  0
 11 62  1  0  0  0  0
 62 63  1  0  0  0  0
  1 64  1  0  0  0  0
  1 65  1  0  0  0  0
  1 66  1  0  0  0  0
M  END
> <Potency>
0.556690293129698

> <pIC50>
6.254386351311998

> <Outcome>
Active

> <is_active>
1

$$$$

  Mrv1921 08232120312D          

 33 35  0  0  0  0            999 V2000
    0.0000   -2.4750    0.0000 O   0  0  0  0  0  0  0  0  0  0  0  0
    0.7145   -2.8875    0.0000 C   0  0  0  0  0  0  0  0  0  0  0  0
    0.7145   -3.7125    0.0000 C   0  0  0  0  0  0  0  0  0  0  0  0
    0.0000   -4.1250    0.0000 C   0  0  0  0  0  0  0  0  0  0  0  0
    0.0000   -4.9500    0.0000 C   0  0  0  0  0  0  0  0  0  0  0  0
    0.7145   -5.3625    0.0000 H   0  0  0  0  0  0  0  0  0  0  0  0
   -0.7145   -5.3625    0.0000 C   0  0  0  0  0  0  0  0  0  0  0  0
   -0.7145   -6.1875    0.0000 H   0  0  0  0  0  0  0  0  0  0  0  0
   -1.4289   -4.9500    0.0000 C   0  0  0  0  0  0  0  0  0  0  0  0
   -2.1434   -5.3625    0.0000 H   0  0  0  0  0  0  0  0  0  0  0  0
   -1.4289   -4.1250    0.0000 C   0  0  0  0  0  0  0  0  0  0  0  0
   -2.1434   -3.7125    0.0000 Cl  0  0  0  0  0  0  0  0  0  0  0  0
   -0.7145   -3.7125    0.0000 C   0  0  0  0  0  0  0  0  0  0  0  0
   -0.7145   -2.8875    0.0000 H   0  0  0  0  0  0  0  0  0  0  0  0
    1.1678   -4.4018    0.0000 H   0  0  0  0  0  0  0  0  0  0  0  0
    1.5381   -3.7605    0.0000 H   0  0  0  0  0  0  0  0  0  0  0  0
    1.4289   -2.4750    0.0000 N   0  0  0  0  0  0  0  0  0  0  0  0
    1.4289   -1.6500    0.0000 C   0  0  0  0  0  0  0  0  0  0  0  0
    0.7145   -1.2375    0.0000 C   0  0  0  0  0  0  0  0  0  0  0  0
    0.0000   -1.6500    0.0000 H   0  0  0  0  0  0  0  0  0  0  0  0
    0.7145   -0.4125    0.0000 N   0  0  0  0  0  0  0  0  0  0  0  0
    1.4289    0.0000    0.0000 C   0  0  0  0  0  0  0  0  0  0  0  0
    1.4289    0.8250    0.0000 H   0  0  0  0  0  0  0  0  0  0  0  0
    2.1434   -0.4125    0.0000 C   0  0  0  0  0  0  0  0  0  0  0  0
    2.8579    0.0000    0.0000 C   0  0  0  0  0  0  0  0  0  0  0  0
    3.5724   -0.4125    0.0000 C   0  0  0  0  0  0  0  0  0  0  0  0
    3.5724   -1.2375    0.0000 N   0  0  0  0  0  0  0  0  0  0  0  0
    2.8579   -1.6500    0.0000 C   0  0  0  0  0  0  0  0  0  0  0  0
    2.8579   -2.4750    0.0000 H   0  0  0  0  0  0  0  0  0  0  0  0
    2.1434   -1.2375    0.0000 C   0  0  0  0  0  0  0  0  0  0  0  0
    4.2868   -0.0000    0.0000 H   0  0  0  0  0  0  0  0  0  0  0  0
    2.8579    0.8250    0.0000 H   0  0  0  0  0  0  0  0  0  0  0  0
    2.1434   -2.8875    0.0000 H   0  0  0  0  0  0  0  0  0  0  0  0
  1  2  2  0  0  0  0
  2  3  1  0  0  0  0
  3  4  1  0  0  0  0
  4  5  2  0  0  0  0
  5  6  1  0  0  0  0
  5  7  1  0  0  0  0
  7  8  1  0  0  0  0
  7  9  2  0  0  0  0
  9 10  1  0  0  0  0
  9 11  1  0  0  0  0
 11 12  1  0  0  0  0
 11 13  2  0  0  0  0
  4 13  1  0  0  0  0
 13 14  1  0  0  0  0
  3 15  1  0  0  0  0
  3 16  1  0  0  0  0
  2 17  1  0  0  0  0
 17 18  1  0  0  0  0
 18 19  1  0  0  0  0
 19 20  1  0  0  0  0
 19 21  2  0  0  0  0
 21 22  1  0  0  0  0
 22 23  1  0  0  0  0
 22 24  2  0  0  0  0
 24 25  1  0  0  0  0
 25 26  2  0  0  0  0
 26 27  1  0  0  0  0
 27 28  2  0  0  0  0
 28 29  1  0  0  0  0
 28 30  1  0  0  0  0
 18 30  2  0  0  0  0
 24 30  1  0  0  0  0
 26 31  1  0  0  0  0
 25 32  1  0  0  0  0
 17 33  1  0  0  0  0
M  END
> <Potency>
4.2732635771199

> <pIC50>
5.369240318847122

> <Outcome>
Active

> <is_active>
1

$$$$

  Mrv1921 08232120312D          

 33 35  0  0  0  0            999 V2000
    0.0000   -2.4750    0.0000 O   0  0  0  0  0  0  0  0  0  0  0  0
    0.7145   -2.8875    0.0000 C   0  0  0  0  0  0  0  0  0  0  0  0
    0.7145   -3.7125    0.0000 C   0  0  0  0  0  0  0  0  0  0  0  0
    0.0000   -4.1250    0.0000 C   0  0  0  0  0  0  0  0  0  0  0  0
    0.0000   -4.9500    0.0000 C   0  0  0  0  0  0  0  0  0  0  0  0
    0.7145   -5.3625    0.0000 H   0  0  0  0  0  0  0  0  0  0  0  0
   -0.7145   -5.3625    0.0000 C   0  0  0  0  0  0  0  0  0  0  0  0
   -0.7145   -6.1875    0.0000 H   0  0  0  0  0  0  0  0  0  0  0  0
   -1.4289   -4.9500    0.0000 C   0  0  0  0  0  0  0  0  0  0  0  0
   -2.1434   -5.3625    0.0000 H   0  0  0  0  0  0  0  0  0  0  0  0
   -1.4289   -4.1250    0.0000 C   0  0  0  0  0  0  0  0  0  0  0  0
   -2.1434   -3.7125    0.0000 Cl  0  0  0  0  0  0  0  0  0  0  0  0
   -0.7145   -3.7125    0.0000 C   0  0  0  0  0  0  0  0  0  0  0  0
   -0.7145   -2.8875    0.0000 H   0  0  0  0  0  0  0  0  0  0  0  0
    1.1678   -4.4018    0.0000 H   0  0  0  0  0  0  0  0  0  0  0  0
    1.5381   -3.7605    0.0000 H   0  0  0  0  0  0  0  0  0  0  0  0
    1.4289   -2.4750    0.0000 N   0  0  0  0  0  0  0  0  0  0  0  0
    1.4289   -1.6500    0.0000 C   0  0  0  0  0  0  0  0  0  0  0  0
    0.7145   -1.2375    0.0000 C   0  0  0  0  0  0  0  0  0  0  0  0
    0.0000   -1.6500    0.0000 H   0  0  0  0  0  0  0  0  0  0  0  0
    0.7145   -0.4125    0.0000 N   0  0  0  0  0  0  0  0  0  0  0  0
    1.4289    0.0000    0.0000 C   0  0  0  0  0  0  0  0  0  0  0  0
    1.4289    0.8250    0.0000 H   0  0  0  0  0  0  0  0  0  0  0  0
    2.1434   -0.4125    0.0000 C   0  0  0  0  0  0  0  0  0  0  0  0
    2.8579    0.0000    0.0000 C   0  0  0  0  0  0  0  0  0  0  0  0
    3.5724   -0.4125    0.0000 N   0  0  0  0  0  0  0  0  0  0  0  0
    3.5724   -1.2375    0.0000 C   0  0  0  0  0  0  0  0  0  0  0  0
    2.8579   -1.6500    0.0000 C   0  0  0  0  0  0  0  0  0  0  0  0
    2.8579   -2.4750    0.0000 H   0  0  0  0  0  0  0  0  0  0  0  0
    2.1434   -1.2375    0.0000 C   0  0  0  0  0  0  0  0  0  0  0  0
    4.2868   -1.6500    0.0000 H   0  0  0  0  0  0  0  0  0  0  0  0
    2.8579    0.8250    0.0000 H   0  0  0  0  0  0  0  0  0  0  0  0
    2.1434   -2.8875    0.0000 H   0  0  0  0  0  0  0  0  0  0  0  0
  1  2  2  0  0  0  0
  2  3  1  0  0  0  0
  3  4  1  0  0  0  0
  4  5  2  0  0  0  0
  5  6  1  0  0  0  0
  5  7  1  0  0  0  0
  7  8  1  0  0  0  0
  7  9  2  0  0  0  0
  9 10  1  0  0  0  0
  9 11  1  0  0  0  0
 11 12  1  0  0  0  0
 11 13  2  0  0  0  0
  4 13  1  0  0  0  0
 13 14  1  0  0  0  0
  3 15  1  0  0  0  0
  3 16  1  0  0  0  0
  2 17  1  0  0  0  0
 17 18  1  0  0  0  0
 18 19  2  0  0  0  0
 19 20  1  0  0  0  0
 19 21  1  0  0  0  0
 21 22  2  0  0  0  0
 22 23  1  0  0  0  0
 22 24  1  0  0  0  0
 24 25  2  0  0  0  0
 25 26  1  0  0  0  0
 26 27  2  0  0  0  0
 27 28  1  0  0  0  0
 28 29  1  0  0  0  0
 28 30  2  0  0  0  0
 18 30  1  0  0  0  0
 24 30  1  0  0  0  0
 27 31  1  0  0  0  0
 25 32  1  0  0  0  0
 17 33  1  0  0  0  0
M  END
> <Potency>
7.94165822521731

> <pIC50>
5.100088807034921

> <Outcome>
Active

> <is_active>
1

$$$$

  Mrv1921 08232120312D          

 40 41  0  0  0  0            999 V2000
    4.2868   -1.6500    0.0000 C   0  0  0  0  0  0  0  0  0  0  0  0
    4.2868   -2.4750    0.0000 C   0  0  0  0  0  0  0  0  0  0  0  0
    5.0013   -2.8875    0.0000 O   0  0  0  0  0  0  0  0  0  0  0  0
    3.5724   -2.8875    0.0000 N   0  0  0  0  0  0  0  0  0  0  0  0
    3.5724   -3.7125    0.0000 C   0  0  0  0  0  0  0  0  0  0  0  0
    4.0257   -4.4018    0.0000 H   0  0  0  0  0  0  0  0  0  0  0  0
    4.3960   -3.7605    0.0000 H   0  0  0  0  0  0  0  0  0  0  0  0
    2.8579   -4.1250    0.0000 C   0  0  0  0  0  0  0  0  0  0  0  0
    2.4876   -4.8622    0.0000 H   0  0  0  0  0  0  0  0  0  0  0  0
    3.2281   -4.8622    0.0000 H   0  0  0  0  0  0  0  0  0  0  0  0
    2.1434   -3.7125    0.0000 N   0  0  0  0  0  0  0  0  0  0  0  0
    1.4289   -4.1250    0.0000 C   0  0  0  0  0  0  0  0  0  0  0  0
    0.7145   -3.7125    0.0000 C   0  0  0  0  0  0  0  0  0  0  0  0
    0.7145   -2.8875    0.0000 O   0  0  0  0  0  0  0  0  0  0  0  0
    0.0000   -4.1250    0.0000 N   0  0  0  0  0  0  0  0  0  0  0  0
   -0.7145   -3.7125    0.0000 C   0  0  0  0  0  0  0  0  0  0  0  0
   -1.4289   -4.1250    0.0000 C   0  0  0  0  0  0  0  0  0  0  0  0
   -1.4289   -4.9500    0.0000 H   0  0  0  0  0  0  0  0  0  0  0  0
   -2.1434   -3.7125    0.0000 N   0  0  0  0  0  0  0  0  0  0  0  0
   -2.1434   -2.8875    0.0000 C   0  0  0  0  0  0  0  0  0  0  0  0
   -2.8579   -2.4750    0.0000 H   0  0  0  0  0  0  0  0  0  0  0  0
   -1.4289   -2.4750    0.0000 C   0  0  0  0  0  0  0  0  0  0  0  0
   -1.4289   -1.6500    0.0000 H   0  0  0  0  0  0  0  0  0  0  0  0
   -0.7145   -2.8875    0.0000 C   0  0  0  0  0  0  0  0  0  0  0  0
    0.0000   -2.4750    0.0000 C   0  0  0  0  0  0  0  0  0  0  0  0
    0.7145   -2.0625    0.0000 H   0  0  0  0  0  0  0  0  0  0  0  0
    0.0000   -1.6500    0.0000 H   0  0  0  0  0  0  0  0  0  0  0  0
   -0.7145   -2.0625    0.0000 H   0  0  0  0  0  0  0  0  0  0  0  0
    0.0000   -4.9500    0.0000 H   0  0  0  0  0  0  0  0  0  0  0  0
    1.0587   -4.8622    0.0000 H   0  0  0  0  0  0  0  0  0  0  0  0
    1.7992   -4.8622    0.0000 H   0  0  0  0  0  0  0  0  0  0  0  0
    2.1434   -2.8875    0.0000 C   0  0  0  0  0  0  0  0  0  0  0  0
    1.6901   -2.1982    0.0000 H   0  0  0  0  0  0  0  0  0  0  0  0
    1.3198   -2.8395    0.0000 H   0  0  0  0  0  0  0  0  0  0  0  0
    2.8579   -2.4750    0.0000 C   0  0  0  0  0  0  0  0  0  0  0  0
    3.2281   -1.7378    0.0000 H   0  0  0  0  0  0  0  0  0  0  0  0
    2.4876   -1.7378    0.0000 H   0  0  0  0  0  0  0  0  0  0  0  0
    5.1118   -1.6500    0.0000 H   0  0  0  0  0  0  0  0  0  0  0  0
    4.2868   -0.8250    0.0000 H   0  0  0  0  0  0  0  0  0  0  0  0
    3.4618   -1.6500    0.0000 H   0  0  0  0  0  0  0  0  0  0  0  0
  1  2  1  0  0  0  0
  2  3  2  0  0  0  0
  2  4  1  0  0  0  0
  4  5  1  0  0  0  0
  5  6  1  0  0  0  0
  5  7  1  0  0  0  0
  5  8  1  0  0  0  0
  8  9  1  0  0  0  0
  8 10  1  0  0  0  0
  8 11  1  0  0  0  0
 11 12  1  0  0  0  0
 12 13  1  0  0  0  0
 13 14  2  0  0  0  0
 13 15  1  0  0  0  0
 15 16  1  0  0  0  0
 16 17  2  0  0  0  0
 17 18  1  0  0  0  0
 17 19  1  0  0  0  0
 19 20  2  0  0  0  0
 20 21  1  0  0  0  0
 20 22  1  0  0  0  0
 22 23  1  0  0  0  0
 22 24  2  0  0  0  0
 16 24  1  0  0  0  0
 24 25  1  0  0  0  0
 25 26  1  0  0  0  0
 25 27  1  0  0  0  0
 25 28  1  0  0  0  0
 15 29  1  0  0  0  0
 12 30  1  0  0  0  0
 12 31  1  0  0  0  0
 11 32  1  0  0  0  0
 32 33  1  0  0  0  0
 32 34  1  0  0  0  0
 32 35  1  0  0  0  0
  4 35  1  0  0  0  0
 35 36  1  0  0  0  0
 35 37  1  0  0  0  0
  1 38  1  0  0  0  0
  1 39  1  0  0  0  0
  1 40  1  0  0  0  0
M  END
> <Potency>
0.637897638524396

> <pIC50>
6.195249005590129

> <Outcome>
Active

> <is_active>
1

$$$$

  Mrv1921 08232120312D          

 34 36  0  0  0  0            999 V2000
    0.0000   -2.4750    0.0000 O   0  0  0  0  0  0  0  0  0  0  0  0
    0.7145   -2.8875    0.0000 C   0  0  0  0  0  0  0  0  0  0  0  0
    0.7145   -3.7125    0.0000 C   0  0  0  0  0  0  0  0  0  0  0  0
    0.0000   -4.1250    0.0000 C   0  0  0  0  0  0  0  0  0  0  0  0
    0.0000   -4.9500    0.0000 C   0  0  0  0  0  0  0  0  0  0  0  0
    0.7145   -5.3625    0.0000 H   0  0  0  0  0  0  0  0  0  0  0  0
   -0.7145   -5.3625    0.0000 C   0  0  0  0  0  0  0  0  0  0  0  0
   -0.7145   -6.1875    0.0000 H   0  0  0  0  0  0  0  0  0  0  0  0
   -1.4289   -4.9500    0.0000 C   0  0  0  0  0  0  0  0  0  0  0  0
   -2.1434   -5.3625    0.0000 H   0  0  0  0  0  0  0  0  0  0  0  0
   -1.4289   -4.1250    0.0000 C   0  0  0  0  0  0  0  0  0  0  0  0
   -2.1434   -3.7125    0.0000 Cl  0  0  0  0  0  0  0  0  0  0  0  0
   -0.7145   -3.7125    0.0000 C   0  0  0  0  0  0  0  0  0  0  0  0
   -0.7145   -2.8875    0.0000 H   0  0  0  0  0  0  0  0  0  0  0  0
    1.1678   -4.4018    0.0000 H   0  0  0  0  0  0  0  0  0  0  0  0
    1.5381   -3.7605    0.0000 H   0  0  0  0  0  0  0  0  0  0  0  0
    1.4289   -2.4750    0.0000 N   0  0  0  0  0  0  0  0  0  0  0  0
    1.4289   -1.6500    0.0000 C   0  0  0  0  0  0  0  0  0  0  0  0
    0.7145   -1.2375    0.0000 C   0  0  0  0  0  0  0  0  0  0  0  0
    0.0000   -1.6500    0.0000 H   0  0  0  0  0  0  0  0  0  0  0  0
    0.7145   -0.4125    0.0000 N   0  0  0  0  0  0  0  0  0  0  0  0
    1.4289    0.0000    0.0000 C   0  0  0  0  0  0  0  0  0  0  0  0
    1.4289    0.8250    0.0000 H   0  0  0  0  0  0  0  0  0  0  0  0
    2.1434   -0.4125    0.0000 C   0  0  0  0  0  0  0  0  0  0  0  0
    2.8579    0.0000    0.0000 C   0  0  0  0  0  0  0  0  0  0  0  0
    2.8579    0.8250    0.0000 F   0  0  0  0  0  0  0  0  0  0  0  0
    3.5724   -0.4125    0.0000 C   0  0  0  0  0  0  0  0  0  0  0  0
    3.5724   -1.2375    0.0000 C   0  0  0  0  0  0  0  0  0  0  0  0
    2.8579   -1.6500    0.0000 C   0  0  0  0  0  0  0  0  0  0  0  0
    2.8579   -2.4750    0.0000 H   0  0  0  0  0  0  0  0  0  0  0  0
    2.1434   -1.2375    0.0000 C   0  0  0  0  0  0  0  0  0  0  0  0
    4.2868   -1.6500    0.0000 H   0  0  0  0  0  0  0  0  0  0  0  0
    4.2868   -0.0000    0.0000 H   0  0  0  0  0  0  0  0  0  0  0  0
    2.1434   -2.8875    0.0000 H   0  0  0  0  0  0  0  0  0  0  0  0
  1  2  2  0  0  0  0
  2  3  1  0  0  0  0
  3  4  1  0  0  0  0
  4  5  2  0  0  0  0
  5  6  1  0  0  0  0
  5  7  1  0  0  0  0
  7  8  1  0  0  0  0
  7  9  2  0  0  0  0
  9 10  1  0  0  0  0
  9 11  1  0  0  0  0
 11 12  1  0  0  0  0
 11 13  2  0  0  0  0
  4 13  1  0  0  0  0
 13 14  1  0  0  0  0
  3 15  1  0  0  0  0
  3 16  1  0  0  0  0
  2 17  1  0  0  0  0
 17 18  1  0  0  0  0
 18 19  2  0  0  0  0
 19 20  1  0  0  0  0
 19 21  1  0  0  0  0
 21 22  2  0  0  0  0
 22 23  1  0  0  0  0
 22 24  1  0  0  0  0
 24 25  2  0  0  0  0
 25 26  1  0  0  0  0
 25 27  1  0  0  0  0
 27 28  2  0  0  0  0
 28 29  1  0  0  0  0
 29 30  1  0  0  0  0
 29 31  2  0  0  0  0
 18 31  1  0  0  0  0
 24 31  1  0  0  0  0
 28 32  1  0  0  0  0
 27 33  1  0  0  0  0
 17 34  1  0  0  0  0
M  END
> <Potency>
0.889561825883844

> <pIC50>
6.050823862411882

> <Outcome>
Active

> <is_active>
1

$$$$

  Mrv1921 08232120312D          

 31 33  0  0  0  0            999 V2000
    1.8500    2.0625    0.0000 O   0  0  0  0  0  0  0  0  0  0  0  0
    2.5645    2.4750    0.0000 C   0  0  0  0  0  0  0  0  0  0  0  0
    2.5645    3.3000    0.0000 C   0  0  0  0  0  0  0  0  0  0  0  0
    1.8500    3.7125    0.0000 C   0  0  0  0  0  0  0  0  0  0  0  0
    1.1355    3.3000    0.0000 C   0  0  0  0  0  0  0  0  0  0  0  0
    1.1355    2.4750    0.0000 H   0  0  0  0  0  0  0  0  0  0  0  0
    0.4210    3.7125    0.0000 C   0  0  0  0  0  0  0  0  0  0  0  0
   -0.2934    3.3000    0.0000 H   0  0  0  0  0  0  0  0  0  0  0  0
    0.4210    4.5375    0.0000 C   0  0  0  0  0  0  0  0  0  0  0  0
   -0.2934    4.9500    0.0000 H   0  0  0  0  0  0  0  0  0  0  0  0
    1.1355    4.9500    0.0000 C   0  0  0  0  0  0  0  0  0  0  0  0
    1.1355    5.7750    0.0000 Cl  0  0  0  0  0  0  0  0  0  0  0  0
    1.8500    4.5375    0.0000 C   0  0  0  0  0  0  0  0  0  0  0  0
    2.5645    4.9500    0.0000 H   0  0  0  0  0  0  0  0  0  0  0  0
    3.3881    3.3480    0.0000 H   0  0  0  0  0  0  0  0  0  0  0  0
    3.0178    3.9893    0.0000 H   0  0  0  0  0  0  0  0  0  0  0  0
    3.2789    2.0625    0.0000 N   0  0  0  0  0  0  0  0  0  0  0  0
    3.2789    1.2375    0.0000 C   0  0  0  0  0  0  0  0  0  0  0  0
    3.9934    0.8250    0.0000 C   0  0  0  0  0  0  0  0  0  0  0  0
    4.7079    1.2375    0.0000 H   0  0  0  0  0  0  0  0  0  0  0  0
    3.9934    0.0000    0.0000 N   0  0  0  0  0  0  0  0  0  0  0  0
    3.2789   -0.4125    0.0000 C   0  0  0  0  0  0  0  0  0  0  0  0
    3.2789   -1.2375    0.0000 H   0  0  0  0  0  0  0  0  0  0  0  0
    2.5645    0.0000    0.0000 C   0  0  0  0  0  0  0  0  0  0  0  0
    1.7798   -0.2549    0.0000 S   0  0  0  0  0  0  0  0  0  0  0  0
    1.2949    0.4125    0.0000 C   0  0  0  0  0  0  0  0  0  0  0  0
    1.7798    1.0799    0.0000 C   0  0  0  0  0  0  0  0  0  0  0  0
    1.5249    1.8646    0.0000 H   0  0  0  0  0  0  0  0  0  0  0  0
    2.5645    0.8250    0.0000 C   0  0  0  0  0  0  0  0  0  0  0  0
    0.4699    0.4125    0.0000 H   0  0  0  0  0  0  0  0  0  0  0  0
    3.9934    2.4750    0.0000 H   0  0  0  0  0  0  0  0  0  0  0  0
  1  2  2  0  0  0  0
  2  3  1  0  0  0  0
  3  4  1  0  0  0  0
  4  5  2  0  0  0  0
  5  6  1  0  0  0  0
  5  7  1  0  0  0  0
  7  8  1  0  0  0  0
  7  9  2  0  0  0  0
  9 10  1  0  0  0  0
  9 11  1  0  0  0  0
 11 12  1  0  0  0  0
 11 13  2  0  0  0  0
  4 13  1  0  0  0  0
 13 14  1  0  0  0  0
  3 15  1  0  0  0  0
  3 16  1  0  0  0  0
  2 17  1  0  0  0  0
 17 18  1  0  0  0  0
 18 19  1  0  0  0  0
 19 20  1  0  0  0  0
 19 21  2  0  0  0  0
 21 22  1  0  0  0  0
 22 23  1  0  0  0  0
 22 24  2  0  0  0  0
 24 25  1  0  0  0  0
 25 26  1  0  0  0  0
 26 27  2  0  0  0  0
 27 28  1  0  0  0  0
 27 29  1  0  0  0  0
 18 29  2  0  0  0  0
 24 29  1  0  0  0  0
 26 30  1  0  0  0  0
 17 31  1  0  0  0  0
M  END
> <Potency>
0.424567009737814

> <pIC50>
6.372053754977971

> <Outcome>
Active

> <is_active>
1

$$$$

  Mrv1921 08232120312D          

 34 36  0  0  0  0            999 V2000
    0.0000   -2.4750    0.0000 O   0  0  0  0  0  0  0  0  0  0  0  0
    0.7145   -2.8875    0.0000 C   0  0  0  0  0  0  0  0  0  0  0  0
    0.7145   -3.7125    0.0000 C   0  0  0  0  0  0  0  0  0  0  0  0
    0.0000   -4.1250    0.0000 C   0  0  0  0  0  0  0  0  0  0  0  0
    0.0000   -4.9500    0.0000 C   0  0  0  0  0  0  0  0  0  0  0  0
    0.7145   -5.3625    0.0000 H   0  0  0  0  0  0  0  0  0  0  0  0
   -0.7145   -5.3625    0.0000 C   0  0  0  0  0  0  0  0  0  0  0  0
   -0.7145   -6.1875    0.0000 H   0  0  0  0  0  0  0  0  0  0  0  0
   -1.4289   -4.9500    0.0000 C   0  0  0  0  0  0  0  0  0  0  0  0
   -2.1434   -5.3625    0.0000 Cl  0  0  0  0  0  0  0  0  0  0  0  0
   -1.4289   -4.1250    0.0000 C   0  0  0  0  0  0  0  0  0  0  0  0
   -2.1434   -3.7125    0.0000 F   0  0  0  0  0  0  0  0  0  0  0  0
   -0.7145   -3.7125    0.0000 C   0  0  0  0  0  0  0  0  0  0  0  0
   -0.7145   -2.8875    0.0000 H   0  0  0  0  0  0  0  0  0  0  0  0
    1.1678   -4.4018    0.0000 H   0  0  0  0  0  0  0  0  0  0  0  0
    1.5381   -3.7605    0.0000 H   0  0  0  0  0  0  0  0  0  0  0  0
    1.4289   -2.4750    0.0000 N   0  0  0  0  0  0  0  0  0  0  0  0
    1.4289   -1.6500    0.0000 C   0  0  0  0  0  0  0  0  0  0  0  0
    0.7145   -1.2375    0.0000 C   0  0  0  0  0  0  0  0  0  0  0  0
    0.0000   -1.6500    0.0000 H   0  0  0  0  0  0  0  0  0  0  0  0
    0.7145   -0.4125    0.0000 N   0  0  0  0  0  0  0  0  0  0  0  0
    1.4289    0.0000    0.0000 C   0  0  0  0  0  0  0  0  0  0  0  0
    1.4289    0.8250    0.0000 H   0  0  0  0  0  0  0  0  0  0  0  0
    2.1434   -0.4125    0.0000 C   0  0  0  0  0  0  0  0  0  0  0  0
    2.8579    0.0000    0.0000 C   0  0  0  0  0  0  0  0  0  0  0  0
    3.5724   -0.4125    0.0000 C   0  0  0  0  0  0  0  0  0  0  0  0
    3.5724   -1.2375    0.0000 C   0  0  0  0  0  0  0  0  0  0  0  0
    2.8579   -1.6500    0.0000 C   0  0  0  0  0  0  0  0  0  0  0  0
    2.8579   -2.4750    0.0000 H   0  0  0  0  0  0  0  0  0  0  0  0
    2.1434   -1.2375    0.0000 C   0  0  0  0  0  0  0  0  0  0  0  0
    4.2868   -1.6500    0.0000 H   0  0  0  0  0  0  0  0  0  0  0  0
    4.2868   -0.0000    0.0000 H   0  0  0  0  0  0  0  0  0  0  0  0
    2.8579    0.8250    0.0000 H   0  0  0  0  0  0  0  0  0  0  0  0
    2.1434   -2.8875    0.0000 H   0  0  0  0  0  0  0  0  0  0  0  0
  1  2  2  0  0  0  0
  2  3  1  0  0  0  0
  3  4  1  0  0  0  0
  4  5  2  0  0  0  0
  5  6  1  0  0  0  0
  5  7  1  0  0  0  0
  7  8  1  0  0  0  0
  7  9  2  0  0  0  0
  9 10  1  0  0  0  0
  9 11  1  0  0  0  0
 11 12  1  0  0  0  0
 11 13  2  0  0  0  0
  4 13  1  0  0  0  0
 13 14  1  0  0  0  0
  3 15  1  0  0  0  0
  3 16  1  0  0  0  0
  2 17  1  0  0  0  0
 17 18  1  0  0  0  0
 18 19  2  0  0  0  0
 19 20  1  0  0  0  0
 19 21  1  0  0  0  0
 21 22  2  0  0  0  0
 22 23  1  0  0  0  0
 22 24  1  0  0  0  0
 24 25  2  0  0  0  0
 25 26  1  0  0  0  0
 26 27  2  0  0  0  0
 27 28  1  0  0  0  0
 28 29  1  0  0  0  0
 28 30  2  0  0  0  0
 18 30  1  0  0  0  0
 24 30  1  0  0  0  0
 27 31  1  0  0  0  0
 26 32  1  0  0  0  0
 25 33  1  0  0  0  0
 17 34  1  0  0  0  0
M  END
> <Potency>
2.02941008277956

> <pIC50>
5.692630186237683

> <Outcome>
Active

> <is_active>
1

$$$$

  Mrv1921 08232120312D          

 34 36  0  0  0  0            999 V2000
    0.0000   -2.4750    0.0000 O   0  0  0  0  0  0  0  0  0  0  0  0
    0.7145   -2.8875    0.0000 C   0  0  0  0  0  0  0  0  0  0  0  0
    0.7145   -3.7125    0.0000 C   0  0  0  0  0  0  0  0  0  0  0  0
    0.0000   -4.1250    0.0000 C   0  0  0  0  0  0  0  0  0  0  0  0
    0.0000   -4.9500    0.0000 C   0  0  0  0  0  0  0  0  0  0  0  0
    0.7145   -5.3625    0.0000 H   0  0  0  0  0  0  0  0  0  0  0  0
   -0.7145   -5.3625    0.0000 C   0  0  0  0  0  0  0  0  0  0  0  0
   -0.7145   -6.1875    0.0000 F   0  0  0  0  0  0  0  0  0  0  0  0
   -1.4289   -4.9500    0.0000 C   0  0  0  0  0  0  0  0  0  0  0  0
   -2.1434   -5.3625    0.0000 H   0  0  0  0  0  0  0  0  0  0  0  0
   -1.4289   -4.1250    0.0000 C   0  0  0  0  0  0  0  0  0  0  0  0
   -2.1434   -3.7125    0.0000 H   0  0  0  0  0  0  0  0  0  0  0  0
   -0.7145   -3.7125    0.0000 C   0  0  0  0  0  0  0  0  0  0  0  0
   -0.7145   -2.8875    0.0000 F   0  0  0  0  0  0  0  0  0  0  0  0
    1.1678   -4.4018    0.0000 H   0  0  0  0  0  0  0  0  0  0  0  0
    1.5381   -3.7605    0.0000 H   0  0  0  0  0  0  0  0  0  0  0  0
    1.4289   -2.4750    0.0000 N   0  0  0  0  0  0  0  0  0  0  0  0
    1.4289   -1.6500    0.0000 C   0  0  0  0  0  0  0  0  0  0  0  0
    0.7145   -1.2375    0.0000 C   0  0  0  0  0  0  0  0  0  0  0  0
    0.0000   -1.6500    0.0000 H   0  0  0  0  0  0  0  0  0  0  0  0
    0.7145   -0.4125    0.0000 N   0  0  0  0  0  0  0  0  0  0  0  0
    1.4289    0.0000    0.0000 C   0  0  0  0  0  0  0  0  0  0  0  0
    1.4289    0.8250    0.0000 H   0  0  0  0  0  0  0  0  0  0  0  0
    2.1434   -0.4125    0.0000 C   0  0  0  0  0  0  0  0  0  0  0  0
    2.8579    0.0000    0.0000 C   0  0  0  0  0  0  0  0  0  0  0  0
    3.5724   -0.4125    0.0000 C   0  0  0  0  0  0  0  0  0  0  0  0
    3.5724   -1.2375    0.0000 C   0  0  0  0  0  0  0  0  0  0  0  0
    2.8579   -1.6500    0.0000 C   0  0  0  0  0  0  0  0  0  0  0  0
    2.8579   -2.4750    0.0000 H   0  0  0  0  0  0  0  0  0  0  0  0
    2.1434   -1.2375    0.0000 C   0  0  0  0  0  0  0  0  0  0  0  0
    4.2868   -1.6500    0.0000 H   0  0  0  0  0  0  0  0  0  0  0  0
    4.2868   -0.0000    0.0000 H   0  0  0  0  0  0  0  0  0  0  0  0
    2.8579    0.8250    0.0000 H   0  0  0  0  0  0  0  0  0  0  0  0
    2.1434   -2.8875    0.0000 H   0  0  0  0  0  0  0  0  0  0  0  0
  1  2  2  0  0  0  0
  2  3  1  0  0  0  0
  3  4  1  0  0  0  0
  4  5  2  0  0  0  0
  5  6  1  0  0  0  0
  5  7  1  0  0  0  0
  7  8  1  0  0  0  0
  7  9  2  0  0  0  0
  9 10  1  0  0  0  0
  9 11  1  0  0  0  0
 11 12  1  0  0  0  0
 11 13  2  0  0  0  0
  4 13  1  0  0  0  0
 13 14  1  0  0  0  0
  3 15  1  0  0  0  0
  3 16  1  0  0  0  0
  2 17  1  0  0  0  0
 17 18  1  0  0  0  0
 18 19  2  0  0  0  0
 19 20  1  0  0  0  0
 19 21  1  0  0  0  0
 21 22  2  0  0  0  0
 22 23  1  0  0  0  0
 22 24  1  0  0  0  0
 24 25  2  0  0  0  0
 25 26  1  0  0  0  0
 26 27  2  0  0  0  0
 27 28  1  0  0  0  0
 28 29  1  0  0  0  0
 28 30  2  0  0  0  0
 18 30  1  0  0  0  0
 24 30  1  0  0  0  0
 27 31  1  0  0  0  0
 26 32  1  0  0  0  0
 25 33  1  0  0  0  0
 17 34  1  0  0  0  0
M  END
> <Potency>
1.71491545242956

> <pIC50>
5.7657572863783075

> <Outcome>
Active

> <is_active>
1

$$$$

  Mrv1921 08232120312D          

 41 44  0  0  0  0            999 V2000
    2.8579   -2.4750    0.0000 O   0  0  0  0  0  0  0  0  0  0  0  0
    2.1434   -2.8875    0.0000 C   0  0  0  0  0  0  0  0  0  0  0  0
    2.1434   -3.7125    0.0000 C   0  0  0  0  0  0  0  0  0  0  0  0
    2.8579   -4.1250    0.0000 C   0  0  0  0  0  0  0  0  0  0  0  0
    3.5724   -3.7125    0.0000 C   0  0  0  0  0  0  0  0  0  0  0  0
    3.9849   -2.9980    0.0000 H   0  0  0  0  0  0  0  0  0  0  0  0
    4.2868   -4.1250    0.0000 C   0  0  0  0  0  0  0  0  0  0  0  0
    5.0013   -3.7125    0.0000 H   0  0  0  0  0  0  0  0  0  0  0  0
    4.2868   -4.9500    0.0000 C   0  0  0  0  0  0  0  0  0  0  0  0
    5.0013   -5.3625    0.0000 Cl  0  0  0  0  0  0  0  0  0  0  0  0
    3.5724   -5.3625    0.0000 C   0  0  0  0  0  0  0  0  0  0  0  0
    3.5724   -6.1875    0.0000 Cl  0  0  0  0  0  0  0  0  0  0  0  0
    2.8579   -4.9500    0.0000 C   0  0  0  0  0  0  0  0  0  0  0  0
    2.1434   -5.3625    0.0000 H   0  0  0  0  0  0  0  0  0  0  0  0
    2.8579   -3.3000    0.0000 H   0  0  0  0  0  0  0  0  0  0  0  0
    1.4289   -4.1250    0.0000 C   0  0  0  0  0  0  0  0  0  0  0  0
    1.0587   -4.8622    0.0000 H   0  0  0  0  0  0  0  0  0  0  0  0
    1.7992   -4.8622    0.0000 H   0  0  0  0  0  0  0  0  0  0  0  0
    0.7145   -3.7125    0.0000 C   0  0  0  0  0  0  0  0  0  0  0  0
   -0.1091   -3.7605    0.0000 H   0  0  0  0  0  0  0  0  0  0  0  0
    0.2611   -4.4018    0.0000 H   0  0  0  0  0  0  0  0  0  0  0  0
    0.7145   -2.8875    0.0000 C   0  0  0  0  0  0  0  0  0  0  0  0
    0.2611   -2.1982    0.0000 H   0  0  0  0  0  0  0  0  0  0  0  0
   -0.1091   -2.8395    0.0000 H   0  0  0  0  0  0  0  0  0  0  0  0
    1.4289   -2.4750    0.0000 N   0  0  0  0  0  0  0  0  0  0  0  0
    1.4289   -1.6500    0.0000 C   0  0  0  0  0  0  0  0  0  0  0  0
    0.7145   -1.2375    0.0000 C   0  0  0  0  0  0  0  0  0  0  0  0
    0.0000   -1.6500    0.0000 H   0  0  0  0  0  0  0  0  0  0  0  0
    0.7145   -0.4125    0.0000 N   0  0  0  0  0  0  0  0  0  0  0  0
    1.4289    0.0000    0.0000 C   0  0  0  0  0  0  0  0  0  0  0  0
    1.4289    0.8250    0.0000 H   0  0  0  0  0  0  0  0  0  0  0  0
    2.1434   -0.4125    0.0000 C   0  0  0  0  0  0  0  0  0  0  0  0
    2.8579    0.0000    0.0000 C   0  0  0  0  0  0  0  0  0  0  0  0
    3.5724   -0.4125    0.0000 C   0  0  0  0  0  0  0  0  0  0  0  0
    3.5724   -1.2375    0.0000 C   0  0  0  0  0  0  0  0  0  0  0  0
    2.8579   -1.6500    0.0000 C   0  0  0  0  0  0  0  0  0  0  0  0
    2.1434   -2.0625    0.0000 H   0  0  0  0  0  0  0  0  0  0  0  0
    2.1434   -1.2375    0.0000 C   0  0  0  0  0  0  0  0  0  0  0  0
    4.2868   -1.6500    0.0000 H   0  0  0  0  0  0  0  0  0  0  0  0
    4.2868   -0.0000    0.0000 H   0  0  0  0  0  0  0  0  0  0  0  0
    2.8579    0.8250    0.0000 H   0  0  0  0  0  0  0  0  0  0  0  0
  1  2  2  0  0  0  0
  2  3  1  0  0  0  0
  3  4  1  0  0  0  0
  4  5  2  0  0  0  0
  5  6  1  0  0  0  0
  5  7  1  0  0  0  0
  7  8  1  0  0  0  0
  7  9  2  0  0  0  0
  9 10  1  0  0  0  0
  9 11  1  0  0  0  0
 11 12  1  0  0  0  0
 11 13  2  0  0  0  0
  4 13  1  0  0  0  0
 13 14  1  0  0  0  0
  3 15  1  0  0  0  0
  3 16  1  0  0  0  0
 16 17  1  0  0  0  0
 16 18  1  0  0  0  0
 16 19  1  0  0  0  0
 19 20  1  0  0  0  0
 19 21  1  0  0  0  0
 19 22  1  0  0  0  0
 22 23  1  0  0  0  0
 22 24  1  0  0  0  0
 22 25  1  0  0  0  0
  2 25  1  0  0  0  0
 25 26  1  0  0  0  0
 26 27  2  0  0  0  0
 27 28  1  0  0  0  0
 27 29  1  0  0  0  0
 29 30  2  0  0  0  0
 30 31  1  0  0  0  0
 30 32  1  0  0  0  0
 32 33  2  0  0  0  0
 33 34  1  0  0  0  0
 34 35  2  0  0  0  0
 35 36  1  0  0  0  0
 36 37  1  0  0  0  0
 36 38  2  0  0  0  0
 26 38  1  0  0  0  0
 32 38  1  0  0  0  0
 35 39  1  0  0  0  0
 34 40  1  0  0  0  0
 33 41  1  0  0  0  0
M  END
> <Potency>
1.44540110056934

> <pIC50>
5.840011618933767

> <Outcome>
Active

> <is_active>
1

$$$$

  Mrv1921 08232120312D          

 34 36  0  0  0  0            999 V2000
    0.0000   -2.4750    0.0000 O   0  0  0  0  0  0  0  0  0  0  0  0
    0.7145   -2.8875    0.0000 C   0  0  0  0  0  0  0  0  0  0  0  0
    0.7145   -3.7125    0.0000 C   0  0  0  0  0  0  0  0  0  0  0  0
    0.0000   -4.1250    0.0000 C   0  0  0  0  0  0  0  0  0  0  0  0
    0.0000   -4.9500    0.0000 C   0  0  0  0  0  0  0  0  0  0  0  0
    0.7145   -5.3625    0.0000 H   0  0  0  0  0  0  0  0  0  0  0  0
   -0.7145   -5.3625    0.0000 C   0  0  0  0  0  0  0  0  0  0  0  0
   -0.7145   -6.1875    0.0000 H   0  0  0  0  0  0  0  0  0  0  0  0
   -1.4289   -4.9500    0.0000 C   0  0  0  0  0  0  0  0  0  0  0  0
   -2.1434   -5.3625    0.0000 H   0  0  0  0  0  0  0  0  0  0  0  0
   -1.4289   -4.1250    0.0000 C   0  0  0  0  0  0  0  0  0  0  0  0
   -2.1434   -3.7125    0.0000 Cl  0  0  0  0  0  0  0  0  0  0  0  0
   -0.7145   -3.7125    0.0000 C   0  0  0  0  0  0  0  0  0  0  0  0
   -0.7145   -2.8875    0.0000 H   0  0  0  0  0  0  0  0  0  0  0  0
    1.1678   -4.4018    0.0000 H   0  0  0  0  0  0  0  0  0  0  0  0
    1.5381   -3.7605    0.0000 H   0  0  0  0  0  0  0  0  0  0  0  0
    1.4289   -2.4750    0.0000 N   0  0  0  0  0  0  0  0  0  0  0  0
    1.4289   -1.6500    0.0000 C   0  0  0  0  0  0  0  0  0  0  0  0
    0.7145   -1.2375    0.0000 C   0  0  0  0  0  0  0  0  0  0  0  0
    0.0000   -1.6500    0.0000 H   0  0  0  0  0  0  0  0  0  0  0  0
    0.7145   -0.4125    0.0000 N   0  0  0  0  0  0  0  0  0  0  0  0
    1.4289    0.0000    0.0000 C   0  0  0  0  0  0  0  0  0  0  0  0
    1.4289    0.8250    0.0000 H   0  0  0  0  0  0  0  0  0  0  0  0
    2.1434   -0.4125    0.0000 C   0  0  0  0  0  0  0  0  0  0  0  0
    2.8579    0.0000    0.0000 C   0  0  0  0  0  0  0  0  0  0  0  0
    3.5724   -0.4125    0.0000 C   0  0  0  0  0  0  0  0  0  0  0  0
    3.5724   -1.2375    0.0000 C   0  0  0  0  0  0  0  0  0  0  0  0
    2.8579   -1.6500    0.0000 C   0  0  0  0  0  0  0  0  0  0  0  0
    2.8579   -2.4750    0.0000 F   0  0  0  0  0  0  0  0  0  0  0  0
    2.1434   -1.2375    0.0000 C   0  0  0  0  0  0  0  0  0  0  0  0
    4.2868   -1.6500    0.0000 H   0  0  0  0  0  0  0  0  0  0  0  0
    4.2868   -0.0000    0.0000 H   0  0  0  0  0  0  0  0  0  0  0  0
    2.8579    0.8250    0.0000 H   0  0  0  0  0  0  0  0  0  0  0  0
    2.1434   -2.8875    0.0000 H   0  0  0  0  0  0  0  0  0  0  0  0
  1  2  2  0  0  0  0
  2  3  1  0  0  0  0
  3  4  1  0  0  0  0
  4  5  2  0  0  0  0
  5  6  1  0  0  0  0
  5  7  1  0  0  0  0
  7  8  1  0  0  0  0
  7  9  2  0  0  0  0
  9 10  1  0  0  0  0
  9 11  1  0  0  0  0
 11 12  1  0  0  0  0
 11 13  2  0  0  0  0
  4 13  1  0  0  0  0
 13 14  1  0  0  0  0
  3 15  1  0  0  0  0
  3 16  1  0  0  0  0
  2 17  1  0  0  0  0
 17 18  1  0  0  0  0
 18 19  2  0  0  0  0
 19 20  1  0  0  0  0
 19 21  1  0  0  0  0
 21 22  2  0  0  0  0
 22 23  1  0  0  0  0
 22 24  1  0  0  0  0
 24 25  2  0  0  0  0
 25 26  1  0  0  0  0
 26 27  2  0  0  0  0
 27 28  1  0  0  0  0
 28 29  1  0  0  0  0
 28 30  2  0  0  0  0
 18 30  1  0  0  0  0
 24 30  1  0  0  0  0
 27 31  1  0  0  0  0
 26 32  1  0  0  0  0
 25 33  1  0  0  0  0
 17 34  1  0  0  0  0
M  END
> <Potency>
1.30603210828413

> <pIC50>
5.884046145971197

> <Outcome>
Active

> <is_active>
1

$$$$

  Mrv1921 08232120312D          

 64 67  0  0  0  0            999 V2000
   -2.1434   -3.7125    0.0000 C   0  0  0  0  0  0  0  0  0  0  0  0
   -1.4289   -3.3000    0.0000 C   0  0  0  0  0  0  0  0  0  0  0  0
   -1.0164   -4.0145    0.0000 C   0  0  0  0  0  0  0  0  0  0  0  0
   -0.9088   -4.8324    0.0000 H   0  0  0  0  0  0  0  0  0  0  0  0
   -0.2196   -4.2280    0.0000 H   0  0  0  0  0  0  0  0  0  0  0  0
   -0.5142   -3.3600    0.0000 H   0  0  0  0  0  0  0  0  0  0  0  0
   -1.8414   -2.5855    0.0000 C   0  0  0  0  0  0  0  0  0  0  0  0
   -1.0235   -2.4778    0.0000 H   0  0  0  0  0  0  0  0  0  0  0  0
   -1.6279   -1.7886    0.0000 H   0  0  0  0  0  0  0  0  0  0  0  0
   -2.4960   -2.0833    0.0000 H   0  0  0  0  0  0  0  0  0  0  0  0
   -0.7145   -2.8875    0.0000 C   0  0  0  0  0  0  0  0  0  0  0  0
   -0.7145   -2.0625    0.0000 C   0  0  0  0  0  0  0  0  0  0  0  0
   -0.8101   -1.2431    0.0000 H   0  0  0  0  0  0  0  0  0  0  0  0
    0.0000   -1.6500    0.0000 C   0  0  0  0  0  0  0  0  0  0  0  0
    0.7053   -1.2221    0.0000 H   0  0  0  0  0  0  0  0  0  0  0  0
    0.7145   -2.0625    0.0000 C   0  0  0  0  0  0  0  0  0  0  0  0
    1.4289   -1.6500    0.0000 N   0  0  0  0  0  0  0  0  0  0  0  0
    1.4289   -0.8250    0.0000 C   0  0  0  0  0  0  0  0  0  0  0  0
    2.1434   -0.4125    0.0000 O   0  0  0  0  0  0  0  0  0  0  0  0
    0.7145   -0.4125    0.0000 C   0  0  0  0  0  0  0  0  0  0  0  0
    0.6282    0.4080    0.0000 C   0  0  0  0  0  0  0  0  0  0  0  0
    1.2413    0.9600    0.0000 H   0  0  0  0  0  0  0  0  0  0  0  0
   -0.1787    0.5795    0.0000 C   0  0  0  0  0  0  0  0  0  0  0  0
   -0.5143    1.3332    0.0000 H   0  0  0  0  0  0  0  0  0  0  0  0
   -0.5912   -0.1350    0.0000 C   0  0  0  0  0  0  0  0  0  0  0  0
   -1.4117   -0.2212    0.0000 H   0  0  0  0  0  0  0  0  0  0  0  0
   -0.0392   -0.7481    0.0000 O   0  0  0  0  0  0  0  0  0  0  0  0
    2.1434   -2.0625    0.0000 C   0  0  0  0  0  0  0  0  0  0  0  0
    2.8579   -1.6500    0.0000 C   0  0  0  0  0  0  0  0  0  0  0  0
    2.8579   -0.8250    0.0000 O   0  0  0  0  0  0  0  0  0  0  0  0
    3.5724   -2.0625    0.0000 N   0  0  0  0  0  0  0  0  0  0  0  0
    4.2868   -1.6500    0.0000 C   0  0  0  0  0  0  0  0  0  0  0  0
    5.0013   -2.0625    0.0000 C   0  0  0  0  0  0  0  0  0  0  0  0
    5.7158   -1.6500    0.0000 C   0  0  0  0  0  0  0  0  0  0  0  0
    5.7158   -0.8250    0.0000 H   0  0  0  0  0  0  0  0  0  0  0  0
    6.4302   -2.0625    0.0000 C   0  0  0  0  0  0  0  0  0  0  0  0
    7.1447   -1.6500    0.0000 H   0  0  0  0  0  0  0  0  0  0  0  0
    6.4302   -2.8875    0.0000 C   0  0  0  0  0  0  0  0  0  0  0  0
    7.1447   -3.3000    0.0000 H   0  0  0  0  0  0  0  0  0  0  0  0
    5.7158   -3.3000    0.0000 C   0  0  0  0  0  0  0  0  0  0  0  0
    5.7158   -4.1250    0.0000 H   0  0  0  0  0  0  0  0  0  0  0  0
    5.0013   -2.8875    0.0000 C   0  0  0  0  0  0  0  0  0  0  0  0
    4.2868   -3.3000    0.0000 H   0  0  0  0  0  0  0  0  0  0  0  0
    4.6571   -0.9128    0.0000 H   0  0  0  0  0  0  0  0  0  0  0  0
    3.9166   -0.9128    0.0000 H   0  0  0  0  0  0  0  0  0  0  0  0
    3.5724   -2.8875    0.0000 H   0  0  0  0  0  0  0  0  0  0  0  0
    2.1434   -2.8875    0.0000 C   0  0  0  0  0  0  0  0  0  0  0  0
    2.8579   -3.3000    0.0000 C   0  0  0  0  0  0  0  0  0  0  0  0
    2.8579   -2.4750    0.0000 H   0  0  0  0  0  0  0  0  0  0  0  0
    2.8579   -4.1250    0.0000 C   0  0  0  0  0  0  0  0  0  0  0  0
    3.5724   -4.5375    0.0000 H   0  0  0  0  0  0  0  0  0  0  0  0
    2.1434   -4.5375    0.0000 C   0  0  0  0  0  0  0  0  0  0  0  0
    2.1434   -5.3625    0.0000 H   0  0  0  0  0  0  0  0  0  0  0  0
    1.4289   -4.1250    0.0000 N   0  0  0  0  0  0  0  0  0  0  0  0
    1.4289   -3.3000    0.0000 C   0  0  0  0  0  0  0  0  0  0  0  0
    1.4289   -2.4750    0.0000 H   0  0  0  0  0  0  0  0  0  0  0  0
    2.1434   -1.2375    0.0000 H   0  0  0  0  0  0  0  0  0  0  0  0
    0.7145   -2.8875    0.0000 C   0  0  0  0  0  0  0  0  0  0  0  0
    0.7145   -3.7125    0.0000 H   0  0  0  0  0  0  0  0  0  0  0  0
    0.0000   -3.3000    0.0000 C   0  0  0  0  0  0  0  0  0  0  0  0
    0.0000   -2.4750    0.0000 H   0  0  0  0  0  0  0  0  0  0  0  0
   -2.5559   -2.9980    0.0000 H   0  0  0  0  0  0  0  0  0  0  0  0
   -2.8579   -4.1250    0.0000 H   0  0  0  0  0  0  0  0  0  0  0  0
   -1.7309   -4.4270    0.0000 H   0  0  0  0  0  0  0  0  0  0  0  0
  1  2  1  0  0  0  0
  2  3  1  0  0  0  0
  3  4  1  0  0  0  0
  3  5  1  0  0  0  0
  3  6  1  0  0  0  0
  2  7  1  0  0  0  0
  7  8  1  0  0  0  0
  7  9  1  0  0  0  0
  7 10  1  0  0  0  0
  2 11  1  0  0  0  0
 11 12  2  0  0  0  0
 12 13  1  0  0  0  0
 12 14  1  0  0  0  0
 14 15  1  0  0  0  0
 14 16  2  0  0  0  0
 16 17  1  0  0  0  0
 17 18  1  0  0  0  0
 18 19  2  0  0  0  0
 18 20  1  0  0  0  0
 20 21  2  0  0  0  0
 21 22  1  0  0  0  0
 21 23  1  0  0  0  0
 23 24  1  0  0  0  0
 23 25  2  0  0  0  0
 25 26  1  0  0  0  0
 25 27  1  0  0  0  0
 20 27  1  0  0  0  0
 17 28  1  0  0  0  0
 28 29  1  0  0  0  0
 29 30  2  0  0  0  0
 29 31  1  0  0  0  0
 31 32  1  0  0  0  0
 32 33  1  0  0  0  0
 33 34  2  0  0  0  0
 34 35  1  0  0  0  0
 34 36  1  0  0  0  0
 36 37  1  0  0  0  0
 36 38  2  0  0  0  0
 38 39  1  0  0  0  0
 38 40  1  0  0  0  0
 40 41  1  0  0  0  0
 40 42  2  0  0  0  0
 33 42  1  0  0  0  0
 42 43  1  0  0  0  0
 32 44  1  0  0  0  0
 32 45  1  0  0  0  0
 31 46  1  0  0  0  0
 28 47  1  0  0  0  0
 47 48  2  0  0  0  0
 48 49  1  0  0  0  0
 48 50  1  0  0  0  0
 50 51  1  0  0  0  0
 50 52  2  0  0  0  0
 52 53  1  0  0  0  0
 52 54  1  0  0  0  0
 54 55  2  0  0  0  0
 47 55  1  0  0  0  0
 55 56  1  0  0  0  0
 28 57  1  0  0  0  0
 16 58  1  0  0  0  0
 58 59  1  0  0  0  0
 58 60  2  0  0  0  0
 11 60  1  0  0  0  0
 60 61  1  0  0  0  0
  1 62  1  0  0  0  0
  1 63  1  0  0  0  0
  1 64  1  0  0  0  0
M  END
> <Potency>
4.36168240740624

> <pIC50>
5.360345960429127

> <Outcome>
Active

> <is_active>
1

$$$$

  Mrv1921 08232120312D          

 34 36  0  0  0  0            999 V2000
    0.0000   -2.4750    0.0000 O   0  0  0  0  0  0  0  0  0  0  0  0
    0.7145   -2.8875    0.0000 C   0  0  0  0  0  0  0  0  0  0  0  0
    0.7145   -3.7125    0.0000 C   0  0  0  0  0  0  0  0  0  0  0  0
    0.0000   -4.1250    0.0000 C   0  0  0  0  0  0  0  0  0  0  0  0
    0.0000   -4.9500    0.0000 C   0  0  0  0  0  0  0  0  0  0  0  0
    0.7145   -5.3625    0.0000 H   0  0  0  0  0  0  0  0  0  0  0  0
   -0.7145   -5.3625    0.0000 C   0  0  0  0  0  0  0  0  0  0  0  0
   -0.7145   -6.1875    0.0000 Cl  0  0  0  0  0  0  0  0  0  0  0  0
   -1.4289   -4.9500    0.0000 C   0  0  0  0  0  0  0  0  0  0  0  0
   -2.1434   -5.3625    0.0000 H   0  0  0  0  0  0  0  0  0  0  0  0
   -1.4289   -4.1250    0.0000 C   0  0  0  0  0  0  0  0  0  0  0  0
   -2.1434   -3.7125    0.0000 H   0  0  0  0  0  0  0  0  0  0  0  0
   -0.7145   -3.7125    0.0000 C   0  0  0  0  0  0  0  0  0  0  0  0
   -0.7145   -2.8875    0.0000 F   0  0  0  0  0  0  0  0  0  0  0  0
    1.1678   -4.4018    0.0000 H   0  0  0  0  0  0  0  0  0  0  0  0
    1.5381   -3.7605    0.0000 H   0  0  0  0  0  0  0  0  0  0  0  0
    1.4289   -2.4750    0.0000 N   0  0  0  0  0  0  0  0  0  0  0  0
    1.4289   -1.6500    0.0000 C   0  0  0  0  0  0  0  0  0  0  0  0
    0.7145   -1.2375    0.0000 C   0  0  0  0  0  0  0  0  0  0  0  0
    0.0000   -1.6500    0.0000 H   0  0  0  0  0  0  0  0  0  0  0  0
    0.7145   -0.4125    0.0000 N   0  0  0  0  0  0  0  0  0  0  0  0
    1.4289    0.0000    0.0000 C   0  0  0  0  0  0  0  0  0  0  0  0
    1.4289    0.8250    0.0000 H   0  0  0  0  0  0  0  0  0  0  0  0
    2.1434   -0.4125    0.0000 C   0  0  0  0  0  0  0  0  0  0  0  0
    2.8579    0.0000    0.0000 C   0  0  0  0  0  0  0  0  0  0  0  0
    3.5724   -0.4125    0.0000 C   0  0  0  0  0  0  0  0  0  0  0  0
    3.5724   -1.2375    0.0000 C   0  0  0  0  0  0  0  0  0  0  0  0
    2.8579   -1.6500    0.0000 C   0  0  0  0  0  0  0  0  0  0  0  0
    2.8579   -2.4750    0.0000 H   0  0  0  0  0  0  0  0  0  0  0  0
    2.1434   -1.2375    0.0000 C   0  0  0  0  0  0  0  0  0  0  0  0
    4.2868   -1.6500    0.0000 H   0  0  0  0  0  0  0  0  0  0  0  0
    4.2868   -0.0000    0.0000 H   0  0  0  0  0  0  0  0  0  0  0  0
    2.8579    0.8250    0.0000 H   0  0  0  0  0  0  0  0  0  0  0  0
    2.1434   -2.8875    0.0000 H   0  0  0  0  0  0  0  0  0  0  0  0
  1  2  2  0  0  0  0
  2  3  1  0  0  0  0
  3  4  1  0  0  0  0
  4  5  2  0  0  0  0
  5  6  1  0  0  0  0
  5  7  1  0  0  0  0
  7  8  1  0  0  0  0
  7  9  2  0  0  0  0
  9 10  1  0  0  0  0
  9 11  1  0  0  0  0
 11 12  1  0  0  0  0
 11 13  2  0  0  0  0
  4 13  1  0  0  0  0
 13 14  1  0  0  0  0
  3 15  1  0  0  0  0
  3 16  1  0  0  0  0
  2 17  1  0  0  0  0
 17 18  1  0  0  0  0
 18 19  2  0  0  0  0
 19 20  1  0  0  0  0
 19 21  1  0  0  0  0
 21 22  2  0  0  0  0
 22 23  1  0  0  0  0
 22 24  1  0  0  0  0
 24 25  2  0  0  0  0
 25 26  1  0  0  0  0
 26 27  2  0  0  0  0
 27 28  1  0  0  0  0
 28 29  1  0  0  0  0
 28 30  2  0  0  0  0
 18 30  1  0  0  0  0
 24 30  1  0  0  0  0
 27 31  1  0  0  0  0
 26 32  1  0  0  0  0
 25 33  1  0  0  0  0
 17 34  1  0  0  0  0
M  END
> <Potency>
0.706793757909663

> <pIC50>
6.150707294645408

> <Outcome>
Active

> <is_active>
1

$$$$

  Mrv1921 08232120312D          

 34 35  0  0  0  0            999 V2000
    2.8579   -2.4750    0.0000 O   0  0  0  0  0  0  0  0  0  0  0  0
    2.1434   -2.0625    0.0000 C   0  0  0  0  0  0  0  0  0  0  0  0
    2.1434   -1.2375    0.0000 C   0  0  0  0  0  0  0  0  0  0  0  0
    2.8579   -0.8250    0.0000 Cl  0  0  0  0  0  0  0  0  0  0  0  0
    1.6901   -0.5482    0.0000 H   0  0  0  0  0  0  0  0  0  0  0  0
    1.3198   -1.1895    0.0000 H   0  0  0  0  0  0  0  0  0  0  0  0
    1.4289   -2.4750    0.0000 N   0  0  0  0  0  0  0  0  0  0  0  0
    1.4289   -3.3000    0.0000 C   0  0  0  0  0  0  0  0  0  0  0  0
    1.8823   -3.9893    0.0000 H   0  0  0  0  0  0  0  0  0  0  0  0
    2.2525   -3.3480    0.0000 H   0  0  0  0  0  0  0  0  0  0  0  0
    0.7145   -3.7125    0.0000 C   0  0  0  0  0  0  0  0  0  0  0  0
    0.3442   -4.4497    0.0000 H   0  0  0  0  0  0  0  0  0  0  0  0
    1.0847   -4.4497    0.0000 H   0  0  0  0  0  0  0  0  0  0  0  0
    0.0000   -3.3000    0.0000 N   0  0  0  0  0  0  0  0  0  0  0  0
   -0.7145   -3.7125    0.0000 S   0  0  0  0  0  0  0  0  0  0  0  0
   -1.1270   -2.9980    0.0000 O   0  0  0  0  0  0  0  0  0  0  0  0
   -0.3020   -4.4270    0.0000 O   0  0  0  0  0  0  0  0  0  0  0  0
   -1.4289   -4.1250    0.0000 C   0  0  0  0  0  0  0  0  0  0  0  0
   -1.4289   -4.9500    0.0000 C   0  0  0  0  0  0  0  0  0  0  0  0
   -0.7145   -5.3625    0.0000 H   0  0  0  0  0  0  0  0  0  0  0  0
   -2.1434   -5.3625    0.0000 C   0  0  0  0  0  0  0  0  0  0  0  0
   -2.1434   -6.1875    0.0000 H   0  0  0  0  0  0  0  0  0  0  0  0
   -2.8579   -4.9500    0.0000 C   0  0  0  0  0  0  0  0  0  0  0  0
   -3.5724   -5.3625    0.0000 H   0  0  0  0  0  0  0  0  0  0  0  0
   -2.8579   -4.1250    0.0000 C   0  0  0  0  0  0  0  0  0  0  0  0
   -3.5724   -3.7125    0.0000 H   0  0  0  0  0  0  0  0  0  0  0  0
   -2.1434   -3.7125    0.0000 C   0  0  0  0  0  0  0  0  0  0  0  0
   -2.1434   -2.8875    0.0000 H   0  0  0  0  0  0  0  0  0  0  0  0
    0.0000   -2.4750    0.0000 C   0  0  0  0  0  0  0  0  0  0  0  0
   -0.4533   -1.7857    0.0000 H   0  0  0  0  0  0  0  0  0  0  0  0
   -0.8236   -2.4270    0.0000 H   0  0  0  0  0  0  0  0  0  0  0  0
    0.7145   -2.0625    0.0000 C   0  0  0  0  0  0  0  0  0  0  0  0
    1.0847   -1.3253    0.0000 H   0  0  0  0  0  0  0  0  0  0  0  0
    0.3442   -1.3253    0.0000 H   0  0  0  0  0  0  0  0  0  0  0  0
  1  2  2  0  0  0  0
  2  3  1  0  0  0  0
  3  4  1  0  0  0  0
  3  5  1  0  0  0  0
  3  6  1  0  0  0  0
  2  7  1  0  0  0  0
  7  8  1  0  0  0  0
  8  9  1  0  0  0  0
  8 10  1  0  0  0  0
  8 11  1  0  0  0  0
 11 12  1  0  0  0  0
 11 13  1  0  0  0  0
 11 14  1  0  0  0  0
 14 15  1  0  0  0  0
 15 16  2  0  0  0  0
 15 17  2  0  0  0  0
 15 18  1  0  0  0  0
 18 19  2  0  0  0  0
 19 20  1  0  0  0  0
 19 21  1  0  0  0  0
 21 22  1  0  0  0  0
 21 23  2  0  0  0  0
 23 24  1  0  0  0  0
 23 25  1  0  0  0  0
 25 26  1  0  0  0  0
 25 27  2  0  0  0  0
 18 27  1  0  0  0  0
 27 28  1  0  0  0  0
 14 29  1  0  0  0  0
 29 30  1  0  0  0  0
 29 31  1  0  0  0  0
 29 32  1  0  0  0  0
  7 32  1  0  0  0  0
 32 33  1  0  0  0  0
 32 34  1  0  0  0  0
M  END
> <Potency>
1.55667685318596

> <pIC50>
5.807801532225513

> <Outcome>
Active

> <is_active>
1

$$$$

  Mrv1921 08232120312D          

 34 36  0  0  0  0            999 V2000
    0.0000   -2.4750    0.0000 O   0  0  0  0  0  0  0  0  0  0  0  0
    0.7145   -2.8875    0.0000 C   0  0  0  0  0  0  0  0  0  0  0  0
    0.7145   -3.7125    0.0000 C   0  0  0  0  0  0  0  0  0  0  0  0
    0.0000   -4.1250    0.0000 C   0  0  0  0  0  0  0  0  0  0  0  0
    0.0000   -4.9500    0.0000 C   0  0  0  0  0  0  0  0  0  0  0  0
    0.7145   -5.3625    0.0000 H   0  0  0  0  0  0  0  0  0  0  0  0
   -0.7145   -5.3625    0.0000 C   0  0  0  0  0  0  0  0  0  0  0  0
   -0.7145   -6.1875    0.0000 H   0  0  0  0  0  0  0  0  0  0  0  0
   -1.4289   -4.9500    0.0000 C   0  0  0  0  0  0  0  0  0  0  0  0
   -2.1434   -5.3625    0.0000 H   0  0  0  0  0  0  0  0  0  0  0  0
   -1.4289   -4.1250    0.0000 C   0  0  0  0  0  0  0  0  0  0  0  0
   -2.1434   -3.7125    0.0000 Cl  0  0  0  0  0  0  0  0  0  0  0  0
   -0.7145   -3.7125    0.0000 C   0  0  0  0  0  0  0  0  0  0  0  0
   -0.7145   -2.8875    0.0000 H   0  0  0  0  0  0  0  0  0  0  0  0
    1.1678   -4.4018    0.0000 H   0  0  0  0  0  0  0  0  0  0  0  0
    1.5381   -3.7605    0.0000 H   0  0  0  0  0  0  0  0  0  0  0  0
    1.4289   -2.4750    0.0000 N   0  0  0  0  0  0  0  0  0  0  0  0
    1.4289   -1.6500    0.0000 C   0  0  0  0  0  0  0  0  0  0  0  0
    0.7145   -1.2375    0.0000 C   0  0  0  0  0  0  0  0  0  0  0  0
    0.0000   -1.6500    0.0000 H   0  0  0  0  0  0  0  0  0  0  0  0
    0.7145   -0.4125    0.0000 N   0  0  0  0  0  0  0  0  0  0  0  0
    1.4289    0.0000    0.0000 C   0  0  0  0  0  0  0  0  0  0  0  0
    1.4289    0.8250    0.0000 H   0  0  0  0  0  0  0  0  0  0  0  0
    2.1434   -0.4125    0.0000 C   0  0  0  0  0  0  0  0  0  0  0  0
    2.8579    0.0000    0.0000 C   0  0  0  0  0  0  0  0  0  0  0  0
    3.5724   -0.4125    0.0000 C   0  0  0  0  0  0  0  0  0  0  0  0
    4.2868   -0.0000    0.0000 F   0  0  0  0  0  0  0  0  0  0  0  0
    3.5724   -1.2375    0.0000 C   0  0  0  0  0  0  0  0  0  0  0  0
    2.8579   -1.6500    0.0000 C   0  0  0  0  0  0  0  0  0  0  0  0
    2.8579   -2.4750    0.0000 H   0  0  0  0  0  0  0  0  0  0  0  0
    2.1434   -1.2375    0.0000 C   0  0  0  0  0  0  0  0  0  0  0  0
    4.2868   -1.6500    0.0000 H   0  0  0  0  0  0  0  0  0  0  0  0
    2.8579    0.8250    0.0000 H   0  0  0  0  0  0  0  0  0  0  0  0
    2.1434   -2.8875    0.0000 H   0  0  0  0  0  0  0  0  0  0  0  0
  1  2  2  0  0  0  0
  2  3  1  0  0  0  0
  3  4  1  0  0  0  0
  4  5  2  0  0  0  0
  5  6  1  0  0  0  0
  5  7  1  0  0  0  0
  7  8  1  0  0  0  0
  7  9  2  0  0  0  0
  9 10  1  0  0  0  0
  9 11  1  0  0  0  0
 11 12  1  0  0  0  0
 11 13  2  0  0  0  0
  4 13  1  0  0  0  0
 13 14  1  0  0  0  0
  3 15  1  0  0  0  0
  3 16  1  0  0  0  0
  2 17  1  0  0  0  0
 17 18  1  0  0  0  0
 18 19  2  0  0  0  0
 19 20  1  0  0  0  0
 19 21  1  0  0  0  0
 21 22  2  0  0  0  0
 22 23  1  0  0  0  0
 22 24  1  0  0  0  0
 24 25  2  0  0  0  0
 25 26  1  0  0  0  0
 26 27  1  0  0  0  0
 26 28  2  0  0  0  0
 28 29  1  0  0  0  0
 29 30  1  0  0  0  0
 29 31  2  0  0  0  0
 18 31  1  0  0  0  0
 24 31  1  0  0  0  0
 28 32  1  0  0  0  0
 25 33  1  0  0  0  0
 17 34  1  0  0  0  0
M  END
> <Potency>
1.46738083505272

> <pIC50>
5.833457157392362

> <Outcome>
Active

> <is_active>
1

$$$$

  Mrv1921 08232120312D          

 34 36  0  0  0  0            999 V2000
    0.0000   -2.4750    0.0000 O   0  0  0  0  0  0  0  0  0  0  0  0
    0.7145   -2.8875    0.0000 C   0  0  0  0  0  0  0  0  0  0  0  0
    0.7145   -3.7125    0.0000 C   0  0  0  0  0  0  0  0  0  0  0  0
    0.0000   -4.1250    0.0000 C   0  0  0  0  0  0  0  0  0  0  0  0
    0.0000   -4.9500    0.0000 C   0  0  0  0  0  0  0  0  0  0  0  0
    0.7145   -5.3625    0.0000 H   0  0  0  0  0  0  0  0  0  0  0  0
   -0.7145   -5.3625    0.0000 C   0  0  0  0  0  0  0  0  0  0  0  0
   -0.7145   -6.1875    0.0000 H   0  0  0  0  0  0  0  0  0  0  0  0
   -1.4289   -4.9500    0.0000 C   0  0  0  0  0  0  0  0  0  0  0  0
   -2.1434   -5.3625    0.0000 H   0  0  0  0  0  0  0  0  0  0  0  0
   -1.4289   -4.1250    0.0000 C   0  0  0  0  0  0  0  0  0  0  0  0
   -2.1434   -3.7125    0.0000 F   0  0  0  0  0  0  0  0  0  0  0  0
   -0.7145   -3.7125    0.0000 C   0  0  0  0  0  0  0  0  0  0  0  0
   -0.7145   -2.8875    0.0000 H   0  0  0  0  0  0  0  0  0  0  0  0
    1.1678   -4.4018    0.0000 H   0  0  0  0  0  0  0  0  0  0  0  0
    1.5381   -3.7605    0.0000 H   0  0  0  0  0  0  0  0  0  0  0  0
    1.4289   -2.4750    0.0000 N   0  0  0  0  0  0  0  0  0  0  0  0
    1.4289   -1.6500    0.0000 C   0  0  0  0  0  0  0  0  0  0  0  0
    0.7145   -1.2375    0.0000 C   0  0  0  0  0  0  0  0  0  0  0  0
    0.0000   -1.6500    0.0000 H   0  0  0  0  0  0  0  0  0  0  0  0
    0.7145   -0.4125    0.0000 N   0  0  0  0  0  0  0  0  0  0  0  0
    1.4289    0.0000    0.0000 C   0  0  0  0  0  0  0  0  0  0  0  0
    1.4289    0.8250    0.0000 H   0  0  0  0  0  0  0  0  0  0  0  0
    2.1434   -0.4125    0.0000 C   0  0  0  0  0  0  0  0  0  0  0  0
    2.8579    0.0000    0.0000 C   0  0  0  0  0  0  0  0  0  0  0  0
    3.5724   -0.4125    0.0000 C   0  0  0  0  0  0  0  0  0  0  0  0
    3.5724   -1.2375    0.0000 C   0  0  0  0  0  0  0  0  0  0  0  0
    2.8579   -1.6500    0.0000 C   0  0  0  0  0  0  0  0  0  0  0  0
    2.8579   -2.4750    0.0000 H   0  0  0  0  0  0  0  0  0  0  0  0
    2.1434   -1.2375    0.0000 C   0  0  0  0  0  0  0  0  0  0  0  0
    4.2868   -1.6500    0.0000 H   0  0  0  0  0  0  0  0  0  0  0  0
    4.2868   -0.0000    0.0000 H   0  0  0  0  0  0  0  0  0  0  0  0
    2.8579    0.8250    0.0000 H   0  0  0  0  0  0  0  0  0  0  0  0
    2.1434   -2.8875    0.0000 H   0  0  0  0  0  0  0  0  0  0  0  0
  1  2  2  0  0  0  0
  2  3  1  0  0  0  0
  3  4  1  0  0  0  0
  4  5  2  0  0  0  0
  5  6  1  0  0  0  0
  5  7  1  0  0  0  0
  7  8  1  0  0  0  0
  7  9  2  0  0  0  0
  9 10  1  0  0  0  0
  9 11  1  0  0  0  0
 11 12  1  0  0  0  0
 11 13  2  0  0  0  0
  4 13  1  0  0  0  0
 13 14  1  0  0  0  0
  3 15  1  0  0  0  0
  3 16  1  0  0  0  0
  2 17  1  0  0  0  0
 17 18  1  0  0  0  0
 18 19  2  0  0  0  0
 19 20  1  0  0  0  0
 19 21  1  0  0  0  0
 21 22  2  0  0  0  0
 22 23  1  0  0  0  0
 22 24  1  0  0  0  0
 24 25  2  0  0  0  0
 25 26  1  0  0  0  0
 26 27  2  0  0  0  0
 27 28  1  0  0  0  0
 28 29  1  0  0  0  0
 28 30  2  0  0  0  0
 18 30  1  0  0  0  0
 24 30  1  0  0  0  0
 27 31  1  0  0  0  0
 26 32  1  0  0  0  0
 25 33  1  0  0  0  0
 17 34  1  0  0  0  0
M  END
> <Potency>
1.85180343942006

> <pIC50>
5.732405113607449

> <Outcome>
Active

> <is_active>
1

$$$$

  Mrv1921 08232120312D          

 37 39  0  0  0  0            999 V2000
   -0.7145   -6.1875    0.0000 C   0  0  0  0  0  0  0  0  0  0  0  0
   -0.7145   -5.3625    0.0000 C   0  0  0  0  0  0  0  0  0  0  0  0
   -1.4289   -4.9500    0.0000 C   0  0  0  0  0  0  0  0  0  0  0  0
   -2.1434   -5.3625    0.0000 H   0  0  0  0  0  0  0  0  0  0  0  0
   -1.4289   -4.1250    0.0000 C   0  0  0  0  0  0  0  0  0  0  0  0
   -2.1434   -3.7125    0.0000 H   0  0  0  0  0  0  0  0  0  0  0  0
   -0.7145   -3.7125    0.0000 C   0  0  0  0  0  0  0  0  0  0  0  0
   -0.7145   -2.8875    0.0000 H   0  0  0  0  0  0  0  0  0  0  0  0
    0.0000   -4.1250    0.0000 C   0  0  0  0  0  0  0  0  0  0  0  0
    0.7145   -3.7125    0.0000 C   0  0  0  0  0  0  0  0  0  0  0  0
    0.7145   -2.8875    0.0000 C   0  0  0  0  0  0  0  0  0  0  0  0
    0.0000   -2.4750    0.0000 O   0  0  0  0  0  0  0  0  0  0  0  0
    1.4289   -2.4750    0.0000 N   0  0  0  0  0  0  0  0  0  0  0  0
    1.4289   -1.6500    0.0000 C   0  0  0  0  0  0  0  0  0  0  0  0
    0.7145   -1.2375    0.0000 C   0  0  0  0  0  0  0  0  0  0  0  0
    0.0000   -1.6500    0.0000 H   0  0  0  0  0  0  0  0  0  0  0  0
    0.7145   -0.4125    0.0000 N   0  0  0  0  0  0  0  0  0  0  0  0
    1.4289    0.0000    0.0000 C   0  0  0  0  0  0  0  0  0  0  0  0
    1.4289    0.8250    0.0000 H   0  0  0  0  0  0  0  0  0  0  0  0
    2.1434   -0.4125    0.0000 C   0  0  0  0  0  0  0  0  0  0  0  0
    2.8579    0.0000    0.0000 C   0  0  0  0  0  0  0  0  0  0  0  0
    3.5724   -0.4125    0.0000 C   0  0  0  0  0  0  0  0  0  0  0  0
    3.5724   -1.2375    0.0000 C   0  0  0  0  0  0  0  0  0  0  0  0
    2.8579   -1.6500    0.0000 C   0  0  0  0  0  0  0  0  0  0  0  0
    2.8579   -2.4750    0.0000 H   0  0  0  0  0  0  0  0  0  0  0  0
    2.1434   -1.2375    0.0000 C   0  0  0  0  0  0  0  0  0  0  0  0
    4.2868   -1.6500    0.0000 H   0  0  0  0  0  0  0  0  0  0  0  0
    4.2868   -0.0000    0.0000 H   0  0  0  0  0  0  0  0  0  0  0  0
    2.8579    0.8250    0.0000 H   0  0  0  0  0  0  0  0  0  0  0  0
    2.1434   -2.8875    0.0000 H   0  0  0  0  0  0  0  0  0  0  0  0
    1.1678   -4.4018    0.0000 H   0  0  0  0  0  0  0  0  0  0  0  0
    1.5381   -3.7605    0.0000 H   0  0  0  0  0  0  0  0  0  0  0  0
    0.0000   -4.9500    0.0000 C   0  0  0  0  0  0  0  0  0  0  0  0
    0.7145   -5.3625    0.0000 H   0  0  0  0  0  0  0  0  0  0  0  0
   -1.5395   -6.1875    0.0000 H   0  0  0  0  0  0  0  0  0  0  0  0
   -0.7145   -7.0125    0.0000 H   0  0  0  0  0  0  0  0  0  0  0  0
    0.1105   -6.1875    0.0000 H   0  0  0  0  0  0  0  0  0  0  0  0
  1  2  1  0  0  0  0
  2  3  2  0  0  0  0
  3  4  1  0  0  0  0
  3  5  1  0  0  0  0
  5  6  1  0  0  0  0
  5  7  2  0  0  0  0
  7  8  1  0  0  0  0
  7  9  1  0  0  0  0
  9 10  1  0  0  0  0
 10 11  1  0  0  0  0
 11 12  2  0  0  0  0
 11 13  1  0  0  0  0
 13 14  1  0  0  0  0
 14 15  2  0  0  0  0
 15 16  1  0  0  0  0
 15 17  1  0  0  0  0
 17 18  2  0  0  0  0
 18 19  1  0  0  0  0
 18 20  1  0  0  0  0
 20 21  2  0  0  0  0
 21 22  1  0  0  0  0
 22 23  2  0  0  0  0
 23 24  1  0  0  0  0
 24 25  1  0  0  0  0
 24 26  2  0  0  0  0
 14 26  1  0  0  0  0
 20 26  1  0  0  0  0
 23 27  1  0  0  0  0
 22 28  1  0  0  0  0
 21 29  1  0  0  0  0
 13 30  1  0  0  0  0
 10 31  1  0  0  0  0
 10 32  1  0  0  0  0
  9 33  2  0  0  0  0
  2 33  1  0  0  0  0
 33 34  1  0  0  0  0
  1 35  1  0  0  0  0
  1 36  1  0  0  0  0
  1 37  1  0  0  0  0
M  END
> <Potency>
4.80453544611295

> <pIC50>
5.318348598202138

> <Outcome>
Active

> <is_active>
1

$$$$

  Mrv1921 08232120312D          

 37 39  0  0  0  0            999 V2000
    0.0000   -2.4750    0.0000 O   0  0  0  0  0  0  0  0  0  0  0  0
    0.7145   -2.8875    0.0000 C   0  0  0  0  0  0  0  0  0  0  0  0
    0.7145   -3.7125    0.0000 C   0  0  0  0  0  0  0  0  0  0  0  0
    0.0000   -4.1250    0.0000 C   0  0  0  0  0  0  0  0  0  0  0  0
    0.0000   -4.9500    0.0000 C   0  0  0  0  0  0  0  0  0  0  0  0
    0.7145   -5.3625    0.0000 H   0  0  0  0  0  0  0  0  0  0  0  0
   -0.7145   -5.3625    0.0000 C   0  0  0  0  0  0  0  0  0  0  0  0
   -0.7145   -6.1875    0.0000 H   0  0  0  0  0  0  0  0  0  0  0  0
   -1.4289   -4.9500    0.0000 C   0  0  0  0  0  0  0  0  0  0  0  0
   -2.1434   -5.3625    0.0000 H   0  0  0  0  0  0  0  0  0  0  0  0
   -1.4289   -4.1250    0.0000 C   0  0  0  0  0  0  0  0  0  0  0  0
   -2.1434   -3.7125    0.0000 C   0  0  0  0  0  0  0  0  0  0  0  0
   -2.8579   -3.3000    0.0000 F   0  0  0  0  0  0  0  0  0  0  0  0
   -2.5559   -4.4270    0.0000 F   0  0  0  0  0  0  0  0  0  0  0  0
   -1.7309   -2.9980    0.0000 F   0  0  0  0  0  0  0  0  0  0  0  0
   -0.7145   -3.7125    0.0000 C   0  0  0  0  0  0  0  0  0  0  0  0
   -0.7145   -2.8875    0.0000 H   0  0  0  0  0  0  0  0  0  0  0  0
    1.1678   -4.4018    0.0000 H   0  0  0  0  0  0  0  0  0  0  0  0
    1.5381   -3.7605    0.0000 H   0  0  0  0  0  0  0  0  0  0  0  0
    1.4289   -2.4750    0.0000 N   0  0  0  0  0  0  0  0  0  0  0  0
    1.4289   -1.6500    0.0000 C   0  0  0  0  0  0  0  0  0  0  0  0
    0.7145   -1.2375    0.0000 C   0  0  0  0  0  0  0  0  0  0  0  0
    0.0000   -1.6500    0.0000 H   0  0  0  0  0  0  0  0  0  0  0  0
    0.7145   -0.4125    0.0000 N   0  0  0  0  0  0  0  0  0  0  0  0
    1.4289    0.0000    0.0000 C   0  0  0  0  0  0  0  0  0  0  0  0
    1.4289    0.8250    0.0000 H   0  0  0  0  0  0  0  0  0  0  0  0
    2.1434   -0.4125    0.0000 C   0  0  0  0  0  0  0  0  0  0  0  0
    2.8579    0.0000    0.0000 C   0  0  0  0  0  0  0  0  0  0  0  0
    3.5724   -0.4125    0.0000 C   0  0  0  0  0  0  0  0  0  0  0  0
    3.5724   -1.2375    0.0000 C   0  0  0  0  0  0  0  0  0  0  0  0
    2.8579   -1.6500    0.0000 C   0  0  0  0  0  0  0  0  0  0  0  0
    2.8579   -2.4750    0.0000 H   0  0  0  0  0  0  0  0  0  0  0  0
    2.1434   -1.2375    0.0000 C   0  0  0  0  0  0  0  0  0  0  0  0
    4.2868   -1.6500    0.0000 H   0  0  0  0  0  0  0  0  0  0  0  0
    4.2868   -0.0000    0.0000 H   0  0  0  0  0  0  0  0  0  0  0  0
    2.8579    0.8250    0.0000 H   0  0  0  0  0  0  0  0  0  0  0  0
    2.1434   -2.8875    0.0000 H   0  0  0  0  0  0  0  0  0  0  0  0
  1  2  2  0  0  0  0
  2  3  1  0  0  0  0
  3  4  1  0  0  0  0
  4  5  2  0  0  0  0
  5  6  1  0  0  0  0
  5  7  1  0  0  0  0
  7  8  1  0  0  0  0
  7  9  2  0  0  0  0
  9 10  1  0  0  0  0
  9 11  1  0  0  0  0
 11 12  1  0  0  0  0
 12 13  1  0  0  0  0
 12 14  1  0  0  0  0
 12 15  1  0  0  0  0
 11 16  2  0  0  0  0
  4 16  1  0  0  0  0
 16 17  1  0  0  0  0
  3 18  1  0  0  0  0
  3 19  1  0  0  0  0
  2 20  1  0  0  0  0
 20 21  1  0  0  0  0
 21 22  2  0  0  0  0
 22 23  1  0  0  0  0
 22 24  1  0  0  0  0
 24 25  2  0  0  0  0
 25 26  1  0  0  0  0
 25 27  1  0  0  0  0
 27 28  2  0  0  0  0
 28 29  1  0  0  0  0
 29 30  2  0  0  0  0
 30 31  1  0  0  0  0
 31 32  1  0  0  0  0
 31 33  2  0  0  0  0
 21 33  1  0  0  0  0
 27 33  1  0  0  0  0
 30 34  1  0  0  0  0
 29 35  1  0  0  0  0
 28 36  1  0  0  0  0
 20 37  1  0  0  0  0
M  END
> <Potency>
6.94412891051118

> <pIC50>
5.158382225532599

> <Outcome>
Active

> <is_active>
1

$$$$

  Mrv1921 08232120312D          

 41 44  0  0  0  0            999 V2000
    2.8579   -2.4750    0.0000 O   0  0  0  0  0  0  0  0  0  0  0  0
    2.1434   -2.8875    0.0000 C   0  0  0  0  0  0  0  0  0  0  0  0
    2.1434   -3.7125    0.0000 C   0  0  0  0  0  0  0  0  0  0  0  0
    2.8579   -4.1250    0.0000 C   0  0  0  0  0  0  0  0  0  0  0  0
    3.5724   -3.7125    0.0000 C   0  0  0  0  0  0  0  0  0  0  0  0
    3.9849   -2.9980    0.0000 H   0  0  0  0  0  0  0  0  0  0  0  0
    4.2868   -4.1250    0.0000 C   0  0  0  0  0  0  0  0  0  0  0  0
    5.0013   -3.7125    0.0000 H   0  0  0  0  0  0  0  0  0  0  0  0
    4.2868   -4.9500    0.0000 C   0  0  0  0  0  0  0  0  0  0  0  0
    5.0013   -5.3625    0.0000 H   0  0  0  0  0  0  0  0  0  0  0  0
    3.5724   -5.3625    0.0000 C   0  0  0  0  0  0  0  0  0  0  0  0
    3.5724   -6.1875    0.0000 Cl  0  0  0  0  0  0  0  0  0  0  0  0
    2.8579   -4.9500    0.0000 C   0  0  0  0  0  0  0  0  0  0  0  0
    2.1434   -5.3625    0.0000 H   0  0  0  0  0  0  0  0  0  0  0  0
    2.8579   -3.3000    0.0000 H   0  0  0  0  0  0  0  0  0  0  0  0
    1.4289   -4.1250    0.0000 C   0  0  0  0  0  0  0  0  0  0  0  0
    1.0587   -4.8622    0.0000 H   0  0  0  0  0  0  0  0  0  0  0  0
    1.7992   -4.8622    0.0000 H   0  0  0  0  0  0  0  0  0  0  0  0
    0.7145   -3.7125    0.0000 C   0  0  0  0  0  0  0  0  0  0  0  0
   -0.1091   -3.7605    0.0000 H   0  0  0  0  0  0  0  0  0  0  0  0
    0.2611   -4.4018    0.0000 H   0  0  0  0  0  0  0  0  0  0  0  0
    0.7145   -2.8875    0.0000 C   0  0  0  0  0  0  0  0  0  0  0  0
    0.2611   -2.1982    0.0000 H   0  0  0  0  0  0  0  0  0  0  0  0
   -0.1091   -2.8395    0.0000 H   0  0  0  0  0  0  0  0  0  0  0  0
    1.4289   -2.4750    0.0000 N   0  0  0  0  0  0  0  0  0  0  0  0
    1.4289   -1.6500    0.0000 C   0  0  0  0  0  0  0  0  0  0  0  0
    0.7145   -1.2375    0.0000 C   0  0  0  0  0  0  0  0  0  0  0  0
    0.0000   -1.6500    0.0000 H   0  0  0  0  0  0  0  0  0  0  0  0
    0.7145   -0.4125    0.0000 N   0  0  0  0  0  0  0  0  0  0  0  0
    1.4289    0.0000    0.0000 C   0  0  0  0  0  0  0  0  0  0  0  0
    1.4289    0.8250    0.0000 H   0  0  0  0  0  0  0  0  0  0  0  0
    2.1434   -0.4125    0.0000 C   0  0  0  0  0  0  0  0  0  0  0  0
    2.8579    0.0000    0.0000 C   0  0  0  0  0  0  0  0  0  0  0  0
    3.5724   -0.4125    0.0000 C   0  0  0  0  0  0  0  0  0  0  0  0
    3.5724   -1.2375    0.0000 C   0  0  0  0  0  0  0  0  0  0  0  0
    2.8579   -1.6500    0.0000 C   0  0  0  0  0  0  0  0  0  0  0  0
    2.1434   -2.0625    0.0000 H   0  0  0  0  0  0  0  0  0  0  0  0
    2.1434   -1.2375    0.0000 C   0  0  0  0  0  0  0  0  0  0  0  0
    4.2868   -1.6500    0.0000 H   0  0  0  0  0  0  0  0  0  0  0  0
    4.2868   -0.0000    0.0000 H   0  0  0  0  0  0  0  0  0  0  0  0
    2.8579    0.8250    0.0000 H   0  0  0  0  0  0  0  0  0  0  0  0
  1  2  2  0  0  0  0
  2  3  1  0  0  0  0
  3  4  1  0  0  0  0
  4  5  2  0  0  0  0
  5  6  1  0  0  0  0
  5  7  1  0  0  0  0
  7  8  1  0  0  0  0
  7  9  2  0  0  0  0
  9 10  1  0  0  0  0
  9 11  1  0  0  0  0
 11 12  1  0  0  0  0
 11 13  2  0  0  0  0
  4 13  1  0  0  0  0
 13 14  1  0  0  0  0
  3 15  1  0  0  0  0
  3 16  1  0  0  0  0
 16 17  1  0  0  0  0
 16 18  1  0  0  0  0
 16 19  1  0  0  0  0
 19 20  1  0  0  0  0
 19 21  1  0  0  0  0
 19 22  1  0  0  0  0
 22 23  1  0  0  0  0
 22 24  1  0  0  0  0
 22 25  1  0  0  0  0
  2 25  1  0  0  0  0
 25 26  1  0  0  0  0
 26 27  2  0  0  0  0
 27 28  1  0  0  0  0
 27 29  1  0  0  0  0
 29 30  2  0  0  0  0
 30 31  1  0  0  0  0
 30 32  1  0  0  0  0
 32 33  2  0  0  0  0
 33 34  1  0  0  0  0
 34 35  2  0  0  0  0
 35 36  1  0  0  0  0
 36 37  1  0  0  0  0
 36 38  2  0  0  0  0
 26 38  1  0  0  0  0
 32 38  1  0  0  0  0
 35 39  1  0  0  0  0
 34 40  1  0  0  0  0
 33 41  1  0  0  0  0
M  END
> <Potency>
1.14150135208733

> <pIC50>
5.942523569759625

> <Outcome>
Active

> <is_active>
1

$$$$

  Mrv1921 08232120312D          

 34 36  0  0  0  0            999 V2000
    0.0000   -2.4750    0.0000 O   0  0  0  0  0  0  0  0  0  0  0  0
    0.7145   -2.8875    0.0000 C   0  0  0  0  0  0  0  0  0  0  0  0
    0.7145   -3.7125    0.0000 C   0  0  0  0  0  0  0  0  0  0  0  0
    0.0000   -4.1250    0.0000 C   0  0  0  0  0  0  0  0  0  0  0  0
    0.0000   -4.9500    0.0000 C   0  0  0  0  0  0  0  0  0  0  0  0
    0.7145   -5.3625    0.0000 H   0  0  0  0  0  0  0  0  0  0  0  0
   -0.7145   -5.3625    0.0000 C   0  0  0  0  0  0  0  0  0  0  0  0
   -0.7145   -6.1875    0.0000 H   0  0  0  0  0  0  0  0  0  0  0  0
   -1.4289   -4.9500    0.0000 C   0  0  0  0  0  0  0  0  0  0  0  0
   -2.1434   -5.3625    0.0000 H   0  0  0  0  0  0  0  0  0  0  0  0
   -1.4289   -4.1250    0.0000 C   0  0  0  0  0  0  0  0  0  0  0  0
   -2.1434   -3.7125    0.0000 Cl  0  0  0  0  0  0  0  0  0  0  0  0
   -0.7145   -3.7125    0.0000 C   0  0  0  0  0  0  0  0  0  0  0  0
   -0.7145   -2.8875    0.0000 H   0  0  0  0  0  0  0  0  0  0  0  0
    1.1678   -4.4018    0.0000 H   0  0  0  0  0  0  0  0  0  0  0  0
    1.5381   -3.7605    0.0000 H   0  0  0  0  0  0  0  0  0  0  0  0
    1.4289   -2.4750    0.0000 N   0  0  0  0  0  0  0  0  0  0  0  0
    1.4289   -1.6500    0.0000 C   0  0  0  0  0  0  0  0  0  0  0  0
    0.7145   -1.2375    0.0000 C   0  0  0  0  0  0  0  0  0  0  0  0
    0.0000   -1.6500    0.0000 H   0  0  0  0  0  0  0  0  0  0  0  0
    0.7145   -0.4125    0.0000 N   0  0  0  0  0  0  0  0  0  0  0  0
    1.4289    0.0000    0.0000 C   0  0  0  0  0  0  0  0  0  0  0  0
    1.4289    0.8250    0.0000 H   0  0  0  0  0  0  0  0  0  0  0  0
    2.1434   -0.4125    0.0000 C   0  0  0  0  0  0  0  0  0  0  0  0
    2.8579    0.0000    0.0000 C   0  0  0  0  0  0  0  0  0  0  0  0
    3.5724   -0.4125    0.0000 C   0  0  0  0  0  0  0  0  0  0  0  0
    3.5724   -1.2375    0.0000 C   0  0  0  0  0  0  0  0  0  0  0  0
    2.8579   -1.6500    0.0000 C   0  0  0  0  0  0  0  0  0  0  0  0
    2.8579   -2.4750    0.0000 H   0  0  0  0  0  0  0  0  0  0  0  0
    2.1434   -1.2375    0.0000 C   0  0  0  0  0  0  0  0  0  0  0  0
    4.2868   -1.6500    0.0000 H   0  0  0  0  0  0  0  0  0  0  0  0
    4.2868   -0.0000    0.0000 H   0  0  0  0  0  0  0  0  0  0  0  0
    2.8579    0.8250    0.0000 H   0  0  0  0  0  0  0  0  0  0  0  0
    2.1434   -2.8875    0.0000 H   0  0  0  0  0  0  0  0  0  0  0  0
  1  2  2  0  0  0  0
  2  3  1  0  0  0  0
  3  4  1  0  0  0  0
  4  5  2  0  0  0  0
  5  6  1  0  0  0  0
  5  7  1  0  0  0  0
  7  8  1  0  0  0  0
  7  9  2  0  0  0  0
  9 10  1  0  0  0  0
  9 11  1  0  0  0  0
 11 12  1  0  0  0  0
 11 13  2  0  0  0  0
  4 13  1  0  0  0  0
 13 14  1  0  0  0  0
  3 15  1  0  0  0  0
  3 16  1  0  0  0  0
  2 17  1  0  0  0  0
 17 18  1  0  0  0  0
 18 19  2  0  0  0  0
 19 20  1  0  0  0  0
 19 21  1  0  0  0  0
 21 22  2  0  0  0  0
 22 23  1  0  0  0  0
 22 24  1  0  0  0  0
 24 25  2  0  0  0  0
 25 26  1  0  0  0  0
 26 27  2  0  0  0  0
 27 28  1  0  0  0  0
 28 29  1  0  0  0  0
 28 30  2  0  0  0  0
 18 30  1  0  0  0  0
 24 30  1  0  0  0  0
 27 31  1  0  0  0  0
 26 32  1  0  0  0  0
 25 33  1  0  0  0  0
 17 34  1  0  0  0  0
M  END
> <Potency>
0.728189436932629

> <pIC50>
6.137755625203151

> <Outcome>
Active

> <is_active>
1

$$$$

  Mrv1921 08232120312D          

 48 51  0  0  0  0            999 V2000
   -2.8579   -6.6000    0.0000 C   0  0  0  0  0  0  0  0  0  0  0  0
   -2.1434   -6.1875    0.0000 O   0  0  0  0  0  0  0  0  0  0  0  0
   -2.1434   -5.3625    0.0000 C   0  0  0  0  0  0  0  0  0  0  0  0
   -2.8579   -4.9500    0.0000 C   0  0  0  0  0  0  0  0  0  0  0  0
   -3.5724   -5.3625    0.0000 H   0  0  0  0  0  0  0  0  0  0  0  0
   -2.8579   -4.1250    0.0000 C   0  0  0  0  0  0  0  0  0  0  0  0
   -3.5724   -3.7125    0.0000 H   0  0  0  0  0  0  0  0  0  0  0  0
   -2.1434   -3.7125    0.0000 C   0  0  0  0  0  0  0  0  0  0  0  0
   -2.1434   -2.8875    0.0000 H   0  0  0  0  0  0  0  0  0  0  0  0
   -1.4289   -4.1250    0.0000 C   0  0  0  0  0  0  0  0  0  0  0  0
   -0.7145   -3.7125    0.0000 N   0  0  0  0  0  0  0  0  0  0  0  0
   -0.7145   -2.8875    0.0000 C   0  0  0  0  0  0  0  0  0  0  0  0
   -1.1678   -2.1982    0.0000 H   0  0  0  0  0  0  0  0  0  0  0  0
   -1.5381   -2.8395    0.0000 H   0  0  0  0  0  0  0  0  0  0  0  0
    0.0000   -2.4750    0.0000 C   0  0  0  0  0  0  0  0  0  0  0  0
    0.3703   -1.7378    0.0000 H   0  0  0  0  0  0  0  0  0  0  0  0
   -0.3703   -1.7378    0.0000 H   0  0  0  0  0  0  0  0  0  0  0  0
    0.7145   -2.8875    0.0000 N   0  0  0  0  0  0  0  0  0  0  0  0
    1.4289   -2.4750    0.0000 C   0  0  0  0  0  0  0  0  0  0  0  0
    2.1434   -2.8875    0.0000 O   0  0  0  0  0  0  0  0  0  0  0  0
    1.4289   -1.6500    0.0000 C   0  0  0  0  0  0  0  0  0  0  0  0
    0.7145   -1.2375    0.0000 C   0  0  0  0  0  0  0  0  0  0  0  0
   -0.0734   -0.9926    0.0000 H   0  0  0  0  0  0  0  0  0  0  0  0
    0.7145   -0.4125    0.0000 C   0  0  0  0  0  0  0  0  0  0  0  0
    0.0000    0.0000    0.0000 O   0  0  0  0  0  0  0  0  0  0  0  0
    1.4289    0.0000    0.0000 N   0  0  0  0  0  0  0  0  0  0  0  0
    1.4289    0.8250    0.0000 H   0  0  0  0  0  0  0  0  0  0  0  0
    2.1434   -0.4125    0.0000 C   0  0  0  0  0  0  0  0  0  0  0  0
    2.8579    0.0000    0.0000 C   0  0  0  0  0  0  0  0  0  0  0  0
    3.5724   -0.4125    0.0000 C   0  0  0  0  0  0  0  0  0  0  0  0
    3.5724   -1.2375    0.0000 C   0  0  0  0  0  0  0  0  0  0  0  0
    2.8579   -1.6500    0.0000 C   0  0  0  0  0  0  0  0  0  0  0  0
    2.8579   -2.4750    0.0000 H   0  0  0  0  0  0  0  0  0  0  0  0
    2.1434   -1.2375    0.0000 C   0  0  0  0  0  0  0  0  0  0  0  0
    4.2868   -1.6500    0.0000 H   0  0  0  0  0  0  0  0  0  0  0  0
    4.2868   -0.0000    0.0000 H   0  0  0  0  0  0  0  0  0  0  0  0
    2.8579    0.8250    0.0000 H   0  0  0  0  0  0  0  0  0  0  0  0
    0.7145   -3.7125    0.0000 C   0  0  0  0  0  0  0  0  0  0  0  0
    1.1678   -4.4018    0.0000 H   0  0  0  0  0  0  0  0  0  0  0  0
    1.5381   -3.7605    0.0000 H   0  0  0  0  0  0  0  0  0  0  0  0
    0.0000   -4.1250    0.0000 C   0  0  0  0  0  0  0  0  0  0  0  0
   -0.3703   -4.8622    0.0000 H   0  0  0  0  0  0  0  0  0  0  0  0
    0.3703   -4.8622    0.0000 H   0  0  0  0  0  0  0  0  0  0  0  0
   -1.4289   -4.9500    0.0000 C   0  0  0  0  0  0  0  0  0  0  0  0
   -0.7145   -5.3625    0.0000 H   0  0  0  0  0  0  0  0  0  0  0  0
   -3.2704   -5.8855    0.0000 H   0  0  0  0  0  0  0  0  0  0  0  0
   -3.5724   -7.0125    0.0000 H   0  0  0  0  0  0  0  0  0  0  0  0
   -2.4454   -7.3145    0.0000 H   0  0  0  0  0  0  0  0  0  0  0  0
  1  2  1  0  0  0  0
  2  3  1  0  0  0  0
  3  4  2  0  0  0  0
  4  5  1  0  0  0  0
  4  6  1  0  0  0  0
  6  7  1  0  0  0  0
  6  8  2  0  0  0  0
  8  9  1  0  0  0  0
  8 10  1  0  0  0  0
 10 11  1  0  0  0  0
 11 12  1  0  0  0  0
 12 13  1  0  0  0  0
 12 14  1  0  0  0  0
 12 15  1  0  0  0  0
 15 16  1  0  0  0  0
 15 17  1  0  0  0  0
 15 18  1  0  0  0  0
 18 19  1  0  0  0  0
 19 20  2  0  0  0  0
 19 21  1  0  0  0  0
 21 22  4  0  0  0  0
 22 23  1  0  0  0  0
 22 24  4  0  0  0  0
 24 25  2  0  0  0  0
 24 26  4  0  0  0  0
 26 27  1  0  0  0  0
 26 28  4  0  0  0  0
 28 29  4  0  0  0  0
 29 30  4  0  0  0  0
 30 31  4  0  0  0  0
 31 32  4  0  0  0  0
 32 33  1  0  0  0  0
 32 34  4  0  0  0  0
 21 34  4  0  0  0  0
 28 34  4  0  0  0  0
 31 35  1  0  0  0  0
 30 36  1  0  0  0  0
 29 37  1  0  0  0  0
 18 38  1  0  0  0  0
 38 39  1  0  0  0  0
 38 40  1  0  0  0  0
 38 41  1  0  0  0  0
 11 41  1  0  0  0  0
 41 42  1  0  0  0  0
 41 43  1  0  0  0  0
 10 44  2  0  0  0  0
  3 44  1  0  0  0  0
 44 45  1  0  0  0  0
  1 46  1  0  0  0  0
  1 47  1  0  0  0  0
  1 48  1  0  0  0  0
M  END
> <Potency>
7.54962952699048

> <pIC50>
5.122074359408075

> <Outcome>
Active

> <is_active>
1

$$$$

  Mrv1921 08232120312D          

 34 35  0  0  0  0            999 V2000
    2.8579   -2.4750    0.0000 O   0  0  0  0  0  0  0  0  0  0  0  0
    2.1434   -2.0625    0.0000 C   0  0  0  0  0  0  0  0  0  0  0  0
    2.1434   -1.2375    0.0000 C   0  0  0  0  0  0  0  0  0  0  0  0
    2.8579   -0.8250    0.0000 Cl  0  0  0  0  0  0  0  0  0  0  0  0
    1.6901   -0.5482    0.0000 H   0  0  0  0  0  0  0  0  0  0  0  0
    1.3198   -1.1895    0.0000 H   0  0  0  0  0  0  0  0  0  0  0  0
    1.4289   -2.4750    0.0000 N   0  0  0  0  0  0  0  0  0  0  0  0
    1.4289   -3.3000    0.0000 C   0  0  0  0  0  0  0  0  0  0  0  0
    1.8823   -3.9893    0.0000 H   0  0  0  0  0  0  0  0  0  0  0  0
    2.2525   -3.3480    0.0000 H   0  0  0  0  0  0  0  0  0  0  0  0
    0.7145   -3.7125    0.0000 C   0  0  0  0  0  0  0  0  0  0  0  0
    0.3442   -4.4497    0.0000 H   0  0  0  0  0  0  0  0  0  0  0  0
    1.0847   -4.4497    0.0000 H   0  0  0  0  0  0  0  0  0  0  0  0
    0.0000   -3.3000    0.0000 N   0  0  0  0  0  0  0  0  0  0  0  0
   -0.7145   -3.7125    0.0000 S   0  0  0  0  0  0  0  0  0  0  0  0
   -1.1270   -2.9980    0.0000 O   0  0  0  0  0  0  0  0  0  0  0  0
   -0.3020   -4.4270    0.0000 O   0  0  0  0  0  0  0  0  0  0  0  0
   -1.4289   -4.1250    0.0000 C   0  0  0  0  0  0  0  0  0  0  0  0
   -1.4289   -4.9500    0.0000 C   0  0  0  0  0  0  0  0  0  0  0  0
   -0.7145   -5.3625    0.0000 H   0  0  0  0  0  0  0  0  0  0  0  0
   -2.1434   -5.3625    0.0000 C   0  0  0  0  0  0  0  0  0  0  0  0
   -2.1434   -6.1875    0.0000 H   0  0  0  0  0  0  0  0  0  0  0  0
   -2.8579   -4.9500    0.0000 C   0  0  0  0  0  0  0  0  0  0  0  0
   -3.5724   -5.3625    0.0000 H   0  0  0  0  0  0  0  0  0  0  0  0
   -2.8579   -4.1250    0.0000 C   0  0  0  0  0  0  0  0  0  0  0  0
   -3.5724   -3.7125    0.0000 F   0  0  0  0  0  0  0  0  0  0  0  0
   -2.1434   -3.7125    0.0000 C   0  0  0  0  0  0  0  0  0  0  0  0
   -2.1434   -2.8875    0.0000 H   0  0  0  0  0  0  0  0  0  0  0  0
    0.0000   -2.4750    0.0000 C   0  0  0  0  0  0  0  0  0  0  0  0
   -0.4533   -1.7857    0.0000 H   0  0  0  0  0  0  0  0  0  0  0  0
   -0.8236   -2.4270    0.0000 H   0  0  0  0  0  0  0  0  0  0  0  0
    0.7145   -2.0625    0.0000 C   0  0  0  0  0  0  0  0  0  0  0  0
    1.0847   -1.3253    0.0000 H   0  0  0  0  0  0  0  0  0  0  0  0
    0.3442   -1.3253    0.0000 H   0  0  0  0  0  0  0  0  0  0  0  0
  1  2  2  0  0  0  0
  2  3  1  0  0  0  0
  3  4  1  0  0  0  0
  3  5  1  0  0  0  0
  3  6  1  0  0  0  0
  2  7  1  0  0  0  0
  7  8  1  0  0  0  0
  8  9  1  0  0  0  0
  8 10  1  0  0  0  0
  8 11  1  0  0  0  0
 11 12  1  0  0  0  0
 11 13  1  0  0  0  0
 11 14  1  0  0  0  0
 14 15  1  0  0  0  0
 15 16  2  0  0  0  0
 15 17  2  0  0  0  0
 15 18  1  0  0  0  0
 18 19  2  0  0  0  0
 19 20  1  0  0  0  0
 19 21  1  0  0  0  0
 21 22  1  0  0  0  0
 21 23  2  0  0  0  0
 23 24  1  0  0  0  0
 23 25  1  0  0  0  0
 25 26  1  0  0  0  0
 25 27  2  0  0  0  0
 18 27  1  0  0  0  0
 27 28  1  0  0  0  0
 14 29  1  0  0  0  0
 29 30  1  0  0  0  0
 29 31  1  0  0  0  0
 29 32  1  0  0  0  0
  7 32  1  0  0  0  0
 32 33  1  0  0  0  0
 32 34  1  0  0  0  0
M  END
> <Potency>
3.66642897542784

> <pIC50>
5.4357567235631015

> <Outcome>
Active

> <is_active>
1

$$$$

  Mrv1921 08232120312D          

 40 44  0  0  0  0            999 V2000
    0.7145   -0.4125    0.0000 O   0  0  0  0  0  0  0  0  0  0  0  0
    1.4289   -0.0000    0.0000 C   0  0  0  0  0  0  0  0  0  0  0  0
    2.1434   -0.4125    0.0000 N   0  0  0  0  0  0  0  0  0  0  0  0
    2.1434   -1.2375    0.0000 C   0  0  0  0  0  0  0  0  0  0  0  0
    2.8579   -1.6500    0.0000 C   0  0  0  0  0  0  0  0  0  0  0  0
    3.5724   -1.2375    0.0000 H   0  0  0  0  0  0  0  0  0  0  0  0
    2.8579   -2.4750    0.0000 N   0  0  0  0  0  0  0  0  0  0  0  0
    2.1434   -2.8875    0.0000 C   0  0  0  0  0  0  0  0  0  0  0  0
    2.1434   -3.7125    0.0000 H   0  0  0  0  0  0  0  0  0  0  0  0
    1.4289   -2.4750    0.0000 C   0  0  0  0  0  0  0  0  0  0  0  0
    0.7145   -2.8875    0.0000 C   0  0  0  0  0  0  0  0  0  0  0  0
   -0.0000   -2.4750    0.0000 C   0  0  0  0  0  0  0  0  0  0  0  0
   -0.0000   -1.6500    0.0000 C   0  0  0  0  0  0  0  0  0  0  0  0
    0.7145   -1.2375    0.0000 C   0  0  0  0  0  0  0  0  0  0  0  0
    1.4289   -0.8250    0.0000 H   0  0  0  0  0  0  0  0  0  0  0  0
    1.4289   -1.6500    0.0000 C   0  0  0  0  0  0  0  0  0  0  0  0
   -0.7145   -1.2375    0.0000 H   0  0  0  0  0  0  0  0  0  0  0  0
   -0.7145   -2.8875    0.0000 H   0  0  0  0  0  0  0  0  0  0  0  0
    0.7145   -3.7125    0.0000 H   0  0  0  0  0  0  0  0  0  0  0  0
    2.8579   -0.0000    0.0000 H   0  0  0  0  0  0  0  0  0  0  0  0
    1.4289    0.8250    0.0000 C   0  0  0  0  0  0  0  0  0  0  0  0
    2.1434    1.2375    0.0000 C   0  0  0  0  0  0  0  0  0  0  0  0
    2.5968    0.5482    0.0000 H   0  0  0  0  0  0  0  0  0  0  0  0
    2.9670    1.1895    0.0000 H   0  0  0  0  0  0  0  0  0  0  0  0
    2.1434    2.0625    0.0000 C   0  0  0  0  0  0  0  0  0  0  0  0
    2.9670    2.1105    0.0000 H   0  0  0  0  0  0  0  0  0  0  0  0
    2.5968    2.7518    0.0000 H   0  0  0  0  0  0  0  0  0  0  0  0
    1.4289    2.4750    0.0000 C   0  0  0  0  0  0  0  0  0  0  0  0
    1.2227    1.6500    0.0000 O   0  0  0  0  0  0  0  0  0  0  0  0
    1.4289    3.3000    0.0000 H   0  0  0  0  0  0  0  0  0  0  0  0
    0.7145    2.0625    0.0000 C   0  0  0  0  0  0  0  0  0  0  0  0
   -0.0000    2.4750    0.0000 C   0  0  0  0  0  0  0  0  0  0  0  0
   -0.7145    2.0625    0.0000 C   0  0  0  0  0  0  0  0  0  0  0  0
   -1.4289    2.4750    0.0000 Cl  0  0  0  0  0  0  0  0  0  0  0  0
   -0.7145    1.2375    0.0000 C   0  0  0  0  0  0  0  0  0  0  0  0
   -0.0000    0.8250    0.0000 C   0  0  0  0  0  0  0  0  0  0  0  0
    0.0000   -0.0000    0.0000 H   0  0  0  0  0  0  0  0  0  0  0  0
    0.7145    1.2375    0.0000 C   0  0  0  0  0  0  0  0  0  0  0  0
   -1.4289    0.8250    0.0000 H   0  0  0  0  0  0  0  0  0  0  0  0
   -0.0000    3.3000    0.0000 H   0  0  0  0  0  0  0  0  0  0  0  0
  1  2  2  0  0  0  0
  2  3  1  0  0  0  0
  3  4  1  0  0  0  0
  4  5  2  0  0  0  0
  5  6  1  0  0  0  0
  5  7  1  0  0  0  0
  7  8  2  0  0  0  0
  8  9  1  0  0  0  0
  8 10  1  0  0  0  0
 10 11  2  0  0  0  0
 11 12  1  0  0  0  0
 12 13  2  0  0  0  0
 13 14  1  0  0  0  0
 14 15  1  0  0  0  0
 14 16  2  0  0  0  0
  4 16  1  0  0  0  0
 10 16  1  0  0  0  0
 13 17  1  0  0  0  0
 12 18  1  0  0  0  0
 11 19  1  0  0  0  0
  3 20  1  0  0  0  0
  2 21  1  0  0  0  0
 21 22  1  0  0  0  0
 22 23  1  0  0  0  0
 22 24  1  0  0  0  0
 22 25  1  0  0  0  0
 25 26  1  0  0  0  0
 25 27  1  0  0  0  0
 25 28  1  0  0  0  0
 28 29  1  0  0  0  0
 21 29  1  0  0  0  0
 28 30  1  0  0  0  0
 28 31  1  0  0  0  0
 31 32  2  0  0  0  0
 32 33  1  0  0  0  0
 33 34  1  0  0  0  0
 33 35  2  0  0  0  0
 35 36  1  0  0  0  0
 36 37  1  0  0  0  0
 36 38  2  0  0  0  0
 21 38  1  0  0  0  0
 31 38  1  0  0  0  0
 35 39  1  0  0  0  0
 32 40  1  0  0  0  0
M  END
> <Potency>
2.39410169325544

> <pIC50>
5.620857406192897

> <Outcome>
Active

> <is_active>
1

$$$$

  Mrv1921 08232120312D          

 65 68  0  0  0  0            999 V2000
   -2.4304    1.4228    0.0000 C   0  0  0  0  0  0  0  0  0  0  0  0
   -1.8903    0.7991    0.0000 C   0  0  0  0  0  0  0  0  0  0  0  0
   -2.5140    0.2590    0.0000 C   0  0  0  0  0  0  0  0  0  0  0  0
   -3.2968   -0.0013    0.0000 H   0  0  0  0  0  0  0  0  0  0  0  0
   -2.5730   -0.5639    0.0000 H   0  0  0  0  0  0  0  0  0  0  0  0
   -1.7763   -0.1105    0.0000 H   0  0  0  0  0  0  0  0  0  0  0  0
   -1.2667    1.3392    0.0000 C   0  0  0  0  0  0  0  0  0  0  0  0
   -1.0064    0.5564    0.0000 H   0  0  0  0  0  0  0  0  0  0  0  0
   -0.4438    1.2801    0.0000 H   0  0  0  0  0  0  0  0  0  0  0  0
   -0.8972    2.0768    0.0000 H   0  0  0  0  0  0  0  0  0  0  0  0
   -1.3502    0.1755    0.0000 C   0  0  0  0  0  0  0  0  0  0  0  0
   -0.5401    0.3314    0.0000 C   0  0  0  0  0  0  0  0  0  0  0  0
    0.2465    0.5801    0.0000 H   0  0  0  0  0  0  0  0  0  0  0  0
    0.0000   -0.2923    0.0000 C   0  0  0  0  0  0  0  0  0  0  0  0
    0.5401   -0.9159    0.0000 H   0  0  0  0  0  0  0  0  0  0  0  0
   -0.2700   -1.0718    0.0000 C   0  0  0  0  0  0  0  0  0  0  0  0
    0.2700   -1.6954    0.0000 N   0  0  0  0  0  0  0  0  0  0  0  0
    0.0000   -2.4750    0.0000 C   0  0  0  0  0  0  0  0  0  0  0  0
    0.5401   -3.0986    0.0000 O   0  0  0  0  0  0  0  0  0  0  0  0
   -0.8101   -2.6309    0.0000 C   0  0  0  0  0  0  0  0  0  0  0  0
   -1.1602   -3.3780    0.0000 C   0  0  0  0  0  0  0  0  0  0  0  0
   -0.7616   -4.1003    0.0000 H   0  0  0  0  0  0  0  0  0  0  0  0
   -1.9788   -3.2759    0.0000 N   0  0  0  0  0  0  0  0  0  0  0  0
   -2.1348   -2.4658    0.0000 O   0  0  0  0  0  0  0  0  0  0  0  0
   -1.4125   -2.0671    0.0000 N   0  0  0  0  0  0  0  0  0  0  0  0
    1.0802   -1.5395    0.0000 C   0  0  0  0  0  0  0  0  0  0  0  0
    1.6203   -2.1632    0.0000 C   0  0  0  0  0  0  0  0  0  0  0  0
    1.3502   -2.9427    0.0000 O   0  0  0  0  0  0  0  0  0  0  0  0
    2.4304   -2.0073    0.0000 N   0  0  0  0  0  0  0  0  0  0  0  0
    2.9705   -2.6309    0.0000 C   0  0  0  0  0  0  0  0  0  0  0  0
    3.7806   -2.4750    0.0000 C   0  0  0  0  0  0  0  0  0  0  0  0
    4.3207   -3.0986    0.0000 C   0  0  0  0  0  0  0  0  0  0  0  0
    5.1308   -2.9427    0.0000 C   0  0  0  0  0  0  0  0  0  0  0  0
    5.4009   -2.1632    0.0000 H   0  0  0  0  0  0  0  0  0  0  0  0
    5.6709   -3.5664    0.0000 C   0  0  0  0  0  0  0  0  0  0  0  0
    6.4811   -3.4105    0.0000 H   0  0  0  0  0  0  0  0  0  0  0  0
    5.4009   -4.3459    0.0000 C   0  0  0  0  0  0  0  0  0  0  0  0
    5.9410   -4.9696    0.0000 H   0  0  0  0  0  0  0  0  0  0  0  0
    4.5908   -4.5018    0.0000 C   0  0  0  0  0  0  0  0  0  0  0  0
    4.3207   -5.2814    0.0000 F   0  0  0  0  0  0  0  0  0  0  0  0
    4.0507   -3.8782    0.0000 C   0  0  0  0  0  0  0  0  0  0  0  0
    3.2405   -4.0341    0.0000 H   0  0  0  0  0  0  0  0  0  0  0  0
    4.3718   -1.8996    0.0000 H   0  0  0  0  0  0  0  0  0  0  0  0
    3.6721   -1.6572    0.0000 H   0  0  0  0  0  0  0  0  0  0  0  0
    2.3793   -3.2063    0.0000 H   0  0  0  0  0  0  0  0  0  0  0  0
    3.0790   -3.4487    0.0000 H   0  0  0  0  0  0  0  0  0  0  0  0
    2.7004   -1.2277    0.0000 H   0  0  0  0  0  0  0  0  0  0  0  0
    1.3502   -0.7600    0.0000 C   0  0  0  0  0  0  0  0  0  0  0  0
    0.8101   -0.1363    0.0000 C   0  0  0  0  0  0  0  0  0  0  0  0
    1.6203    0.0196    0.0000 H   0  0  0  0  0  0  0  0  0  0  0  0
    1.0802    0.6432    0.0000 C   0  0  0  0  0  0  0  0  0  0  0  0
    0.9709    1.4609    0.0000 H   0  0  0  0  0  0  0  0  0  0  0  0
    1.8903    0.7991    0.0000 C   0  0  0  0  0  0  0  0  0  0  0  0
    2.1604    1.5787    0.0000 H   0  0  0  0  0  0  0  0  0  0  0  0
    2.4304    0.1755    0.0000 N   0  0  0  0  0  0  0  0  0  0  0  0
    2.1604   -0.6041    0.0000 C   0  0  0  0  0  0  0  0  0  0  0  0
    1.8903   -1.3836    0.0000 H   0  0  0  0  0  0  0  0  0  0  0  0
    0.8101   -2.3191    0.0000 H   0  0  0  0  0  0  0  0  0  0  0  0
   -1.0802   -1.2277    0.0000 C   0  0  0  0  0  0  0  0  0  0  0  0
   -1.8935   -1.3660    0.0000 H   0  0  0  0  0  0  0  0  0  0  0  0
   -1.6203   -0.6041    0.0000 C   0  0  0  0  0  0  0  0  0  0  0  0
   -0.8101   -0.4482    0.0000 H   0  0  0  0  0  0  0  0  0  0  0  0
   -1.8068    1.9628    0.0000 H   0  0  0  0  0  0  0  0  0  0  0  0
   -2.9705    2.0464    0.0000 H   0  0  0  0  0  0  0  0  0  0  0  0
   -3.0540    0.8827    0.0000 H   0  0  0  0  0  0  0  0  0  0  0  0
  1  2  1  0  0  0  0
  2  3  1  0  0  0  0
  3  4  1  0  0  0  0
  3  5  1  0  0  0  0
  3  6  1  0  0  0  0
  2  7  1  0  0  0  0
  7  8  1  0  0  0  0
  7  9  1  0  0  0  0
  7 10  1  0  0  0  0
  2 11  1  0  0  0  0
 11 12  2  0  0  0  0
 12 13  1  0  0  0  0
 12 14  1  0  0  0  0
 14 15  1  0  0  0  0
 14 16  2  0  0  0  0
 16 17  1  0  0  0  0
 17 18  1  0  0  0  0
 18 19  2  0  0  0  0
 18 20  1  0  0  0  0
 20 21  1  0  0  0  0
 21 22  1  0  0  0  0
 21 23  2  0  0  0  0
 23 24  1  0  0  0  0
 24 25  1  0  0  0  0
 20 25  2  0  0  0  0
 17 26  1  0  0  0  0
 26 27  1  0  0  0  0
 27 28  2  0  0  0  0
 27 29  1  0  0  0  0
 29 30  1  0  0  0  0
 30 31  1  0  0  0  0
 31 32  1  0  0  0  0
 32 33  2  0  0  0  0
 33 34  1  0  0  0  0
 33 35  1  0  0  0  0
 35 36  1  0  0  0  0
 35 37  2  0  0  0  0
 37 38  1  0  0  0  0
 37 39  1  0  0  0  0
 39 40  1  0  0  0  0
 39 41  2  0  0  0  0
 32 41  1  0  0  0  0
 41 42  1  0  0  0  0
 31 43  1  0  0  0  0
 31 44  1  0  0  0  0
 30 45  1  0  0  0  0
 30 46  1  0  0  0  0
 29 47  1  0  0  0  0
 26 48  1  0  0  0  0
 48 49  2  0  0  0  0
 49 50  1  0  0  0  0
 49 51  1  0  0  0  0
 51 52  1  0  0  0  0
 51 53  2  0  0  0  0
 53 54  1  0  0  0  0
 53 55  1  0  0  0  0
 55 56  2  0  0  0  0
 48 56  1  0  0  0  0
 56 57  1  0  0  0  0
 26 58  1  0  0  0  0
 16 59  1  0  0  0  0
 59 60  1  0  0  0  0
 59 61  2  0  0  0  0
 11 61  1  0  0  0  0
 61 62  1  0  0  0  0
  1 63  1  0  0  0  0
  1 64  1  0  0  0  0
  1 65  1  0  0  0  0
M  END
> <Potency>
8.41055112093491

> <pIC50>
5.075175545113053

> <Outcome>
Active

> <is_active>
1

$$$$

  Mrv1921 08232120312D          

 39 42  0  0  0  0            999 V2000
    2.1434   -2.8875    0.0000 O   0  0  0  0  0  0  0  0  0  0  0  0
    1.4289   -2.4750    0.0000 C   0  0  0  0  0  0  0  0  0  0  0  0
    0.7145   -2.8875    0.0000 N   0  0  0  0  0  0  0  0  0  0  0  0
    0.7145   -3.7125    0.0000 C   0  0  0  0  0  0  0  0  0  0  0  0
    1.4289   -4.1250    0.0000 C   0  0  0  0  0  0  0  0  0  0  0  0
    2.1434   -3.7125    0.0000 H   0  0  0  0  0  0  0  0  0  0  0  0
    1.4289   -4.9500    0.0000 N   0  0  0  0  0  0  0  0  0  0  0  0
    0.7145   -5.3625    0.0000 C   0  0  0  0  0  0  0  0  0  0  0  0
    0.7145   -6.1875    0.0000 H   0  0  0  0  0  0  0  0  0  0  0  0
    0.0000   -4.9500    0.0000 C   0  0  0  0  0  0  0  0  0  0  0  0
   -0.7145   -5.3625    0.0000 C   0  0  0  0  0  0  0  0  0  0  0  0
   -1.4289   -4.9500    0.0000 C   0  0  0  0  0  0  0  0  0  0  0  0
   -1.4289   -4.1250    0.0000 C   0  0  0  0  0  0  0  0  0  0  0  0
   -0.7145   -3.7125    0.0000 C   0  0  0  0  0  0  0  0  0  0  0  0
   -0.7145   -2.8875    0.0000 H   0  0  0  0  0  0  0  0  0  0  0  0
    0.0000   -4.1250    0.0000 C   0  0  0  0  0  0  0  0  0  0  0  0
   -2.1434   -3.7125    0.0000 H   0  0  0  0  0  0  0  0  0  0  0  0
   -2.1434   -5.3625    0.0000 H   0  0  0  0  0  0  0  0  0  0  0  0
   -0.7145   -6.1875    0.0000 H   0  0  0  0  0  0  0  0  0  0  0  0
    0.0000   -2.4750    0.0000 H   0  0  0  0  0  0  0  0  0  0  0  0
    1.4289   -1.6500    0.0000 C   0  0  0  0  0  0  0  0  0  0  0  0
    0.7145   -1.2375    0.0000 C   0  0  0  0  0  0  0  0  0  0  0  0
   -0.1091   -1.2855    0.0000 H   0  0  0  0  0  0  0  0  0  0  0  0
    0.2611   -1.9268    0.0000 H   0  0  0  0  0  0  0  0  0  0  0  0
    0.7145   -0.4125    0.0000 C   0  0  0  0  0  0  0  0  0  0  0  0
    0.2611    0.2768    0.0000 H   0  0  0  0  0  0  0  0  0  0  0  0
   -0.1091   -0.3645    0.0000 H   0  0  0  0  0  0  0  0  0  0  0  0
    1.4289    0.0000    0.0000 S   0  0  0  0  0  0  0  0  0  0  0  0
    2.1434   -0.4125    0.0000 C   0  0  0  0  0  0  0  0  0  0  0  0
    2.8579    0.0000    0.0000 C   0  0  0  0  0  0  0  0  0  0  0  0
    3.5724   -0.4125    0.0000 C   0  0  0  0  0  0  0  0  0  0  0  0
    3.5724   -1.2375    0.0000 C   0  0  0  0  0  0  0  0  0  0  0  0
    4.2868   -1.6500    0.0000 Cl  0  0  0  0  0  0  0  0  0  0  0  0
    2.8579   -1.6500    0.0000 C   0  0  0  0  0  0  0  0  0  0  0  0
    3.2704   -2.3645    0.0000 H   0  0  0  0  0  0  0  0  0  0  0  0
    2.1434   -1.2375    0.0000 C   0  0  0  0  0  0  0  0  0  0  0  0
    4.2868   -0.0000    0.0000 H   0  0  0  0  0  0  0  0  0  0  0  0
    2.8579    0.8250    0.0000 H   0  0  0  0  0  0  0  0  0  0  0  0
    2.1434   -2.0625    0.0000 H   0  0  0  0  0  0  0  0  0  0  0  0
  1  2  2  0  0  0  0
  2  3  1  0  0  0  0
  3  4  1  0  0  0  0
  4  5  2  0  0  0  0
  5  6  1  0  0  0  0
  5  7  1  0  0  0  0
  7  8  2  0  0  0  0
  8  9  1  0  0  0  0
  8 10  1  0  0  0  0
 10 11  2  0  0  0  0
 11 12  1  0  0  0  0
 12 13  2  0  0  0  0
 13 14  1  0  0  0  0
 14 15  1  0  0  0  0
 14 16  2  0  0  0  0
  4 16  1  0  0  0  0
 10 16  1  0  0  0  0
 13 17  1  0  0  0  0
 12 18  1  0  0  0  0
 11 19  1  0  0  0  0
  3 20  1  0  0  0  0
  2 21  1  0  0  0  0
 21 22  1  0  0  0  0
 22 23  1  0  0  0  0
 22 24  1  0  0  0  0
 22 25  1  0  0  0  0
 25 26  1  0  0  0  0
 25 27  1  0  0  0  0
 25 28  1  0  0  0  0
 28 29  1  0  0  0  0
 29 30  2  0  0  0  0
 30 31  1  0  0  0  0
 31 32  2  0  0  0  0
 32 33  1  0  0  0  0
 32 34  1  0  0  0  0
 34 35  1  0  0  0  0
 34 36  2  0  0  0  0
 21 36  1  0  0  0  0
 29 36  1  0  0  0  0
 31 37  1  0  0  0  0
 30 38  1  0  0  0  0
 21 39  1  0  0  0  0
M  END
> <Potency>
0.206559697735313

> <pIC50>
6.68495441059267

> <Outcome>
Active

> <is_active>
1

$$$$

  Mrv1921 08232120312D          

 34 36  0  0  0  0            999 V2000
    0.0000   -2.4750    0.0000 O   0  0  0  0  0  0  0  0  0  0  0  0
    0.7145   -2.8875    0.0000 C   0  0  0  0  0  0  0  0  0  0  0  0
    0.7145   -3.7125    0.0000 C   0  0  0  0  0  0  0  0  0  0  0  0
    0.0000   -4.1250    0.0000 C   0  0  0  0  0  0  0  0  0  0  0  0
    0.0000   -4.9500    0.0000 C   0  0  0  0  0  0  0  0  0  0  0  0
    0.7145   -5.3625    0.0000 H   0  0  0  0  0  0  0  0  0  0  0  0
   -0.7145   -5.3625    0.0000 C   0  0  0  0  0  0  0  0  0  0  0  0
   -0.7145   -6.1875    0.0000 H   0  0  0  0  0  0  0  0  0  0  0  0
   -1.4289   -4.9500    0.0000 C   0  0  0  0  0  0  0  0  0  0  0  0
   -2.1434   -5.3625    0.0000 F   0  0  0  0  0  0  0  0  0  0  0  0
   -1.4289   -4.1250    0.0000 C   0  0  0  0  0  0  0  0  0  0  0  0
   -2.1434   -3.7125    0.0000 H   0  0  0  0  0  0  0  0  0  0  0  0
   -0.7145   -3.7125    0.0000 C   0  0  0  0  0  0  0  0  0  0  0  0
   -0.7145   -2.8875    0.0000 H   0  0  0  0  0  0  0  0  0  0  0  0
    1.1678   -4.4018    0.0000 H   0  0  0  0  0  0  0  0  0  0  0  0
    1.5381   -3.7605    0.0000 H   0  0  0  0  0  0  0  0  0  0  0  0
    1.4289   -2.4750    0.0000 N   0  0  0  0  0  0  0  0  0  0  0  0
    1.4289   -1.6500    0.0000 C   0  0  0  0  0  0  0  0  0  0  0  0
    0.7145   -1.2375    0.0000 C   0  0  0  0  0  0  0  0  0  0  0  0
    0.0000   -1.6500    0.0000 H   0  0  0  0  0  0  0  0  0  0  0  0
    0.7145   -0.4125    0.0000 N   0  0  0  0  0  0  0  0  0  0  0  0
    1.4289    0.0000    0.0000 C   0  0  0  0  0  0  0  0  0  0  0  0
    1.4289    0.8250    0.0000 H   0  0  0  0  0  0  0  0  0  0  0  0
    2.1434   -0.4125    0.0000 C   0  0  0  0  0  0  0  0  0  0  0  0
    2.8579    0.0000    0.0000 C   0  0  0  0  0  0  0  0  0  0  0  0
    3.5724   -0.4125    0.0000 C   0  0  0  0  0  0  0  0  0  0  0  0
    3.5724   -1.2375    0.0000 C   0  0  0  0  0  0  0  0  0  0  0  0
    2.8579   -1.6500    0.0000 C   0  0  0  0  0  0  0  0  0  0  0  0
    2.8579   -2.4750    0.0000 H   0  0  0  0  0  0  0  0  0  0  0  0
    2.1434   -1.2375    0.0000 C   0  0  0  0  0  0  0  0  0  0  0  0
    4.2868   -1.6500    0.0000 H   0  0  0  0  0  0  0  0  0  0  0  0
    4.2868   -0.0000    0.0000 H   0  0  0  0  0  0  0  0  0  0  0  0
    2.8579    0.8250    0.0000 H   0  0  0  0  0  0  0  0  0  0  0  0
    2.1434   -2.8875    0.0000 H   0  0  0  0  0  0  0  0  0  0  0  0
  1  2  2  0  0  0  0
  2  3  1  0  0  0  0
  3  4  1  0  0  0  0
  4  5  2  0  0  0  0
  5  6  1  0  0  0  0
  5  7  1  0  0  0  0
  7  8  1  0  0  0  0
  7  9  2  0  0  0  0
  9 10  1  0  0  0  0
  9 11  1  0  0  0  0
 11 12  1  0  0  0  0
 11 13  2  0  0  0  0
  4 13  1  0  0  0  0
 13 14  1  0  0  0  0
  3 15  1  0  0  0  0
  3 16  1  0  0  0  0
  2 17  1  0  0  0  0
 17 18  1  0  0  0  0
 18 19  2  0  0  0  0
 19 20  1  0  0  0  0
 19 21  1  0  0  0  0
 21 22  2  0  0  0  0
 22 23  1  0  0  0  0
 22 24  1  0  0  0  0
 24 25  2  0  0  0  0
 25 26  1  0  0  0  0
 26 27  2  0  0  0  0
 27 28  1  0  0  0  0
 28 29  1  0  0  0  0
 28 30  2  0  0  0  0
 18 30  1  0  0  0  0
 24 30  1  0  0  0  0
 27 31  1  0  0  0  0
 26 32  1  0  0  0  0
 25 33  1  0  0  0  0
 17 34  1  0  0  0  0
M  END
> <Potency>
4.97035722145545

> <pIC50>
5.303612397236119

> <Outcome>
Active

> <is_active>
1

$$$$

  Mrv1921 08232120312D          

 70 73  0  0  0  0            999 V2000
   -2.4304    1.4228    0.0000 C   0  0  0  0  0  0  0  0  0  0  0  0
   -1.8903    0.7991    0.0000 C   0  0  0  0  0  0  0  0  0  0  0  0
   -2.5140    0.2590    0.0000 C   0  0  0  0  0  0  0  0  0  0  0  0
   -3.2968   -0.0013    0.0000 H   0  0  0  0  0  0  0  0  0  0  0  0
   -2.5730   -0.5639    0.0000 H   0  0  0  0  0  0  0  0  0  0  0  0
   -1.7763   -0.1105    0.0000 H   0  0  0  0  0  0  0  0  0  0  0  0
   -1.2667    1.3392    0.0000 C   0  0  0  0  0  0  0  0  0  0  0  0
   -1.0064    0.5564    0.0000 H   0  0  0  0  0  0  0  0  0  0  0  0
   -0.4438    1.2801    0.0000 H   0  0  0  0  0  0  0  0  0  0  0  0
   -0.8972    2.0768    0.0000 H   0  0  0  0  0  0  0  0  0  0  0  0
   -1.3502    0.1755    0.0000 C   0  0  0  0  0  0  0  0  0  0  0  0
   -0.5401    0.3314    0.0000 C   0  0  0  0  0  0  0  0  0  0  0  0
    0.2465    0.5801    0.0000 H   0  0  0  0  0  0  0  0  0  0  0  0
    0.0000   -0.2923    0.0000 C   0  0  0  0  0  0  0  0  0  0  0  0
    0.5401   -0.9159    0.0000 H   0  0  0  0  0  0  0  0  0  0  0  0
   -0.2700   -1.0718    0.0000 C   0  0  0  0  0  0  0  0  0  0  0  0
    0.2700   -1.6954    0.0000 N   0  0  0  0  0  0  0  0  0  0  0  0
    0.0000   -2.4750    0.0000 C   0  0  0  0  0  0  0  0  0  0  0  0
    0.5401   -3.0986    0.0000 O   0  0  0  0  0  0  0  0  0  0  0  0
   -0.8101   -2.6309    0.0000 C   0  0  0  0  0  0  0  0  0  0  0  0
   -1.1602   -3.3780    0.0000 C   0  0  0  0  0  0  0  0  0  0  0  0
   -0.7616   -4.1003    0.0000 H   0  0  0  0  0  0  0  0  0  0  0  0
   -1.9788   -3.2759    0.0000 C   0  0  0  0  0  0  0  0  0  0  0  0
   -2.5426   -3.8782    0.0000 H   0  0  0  0  0  0  0  0  0  0  0  0
   -2.1348   -2.4658    0.0000 C   0  0  0  0  0  0  0  0  0  0  0  0
   -2.8818   -2.1157    0.0000 H   0  0  0  0  0  0  0  0  0  0  0  0
   -1.4125   -2.0671    0.0000 O   0  0  0  0  0  0  0  0  0  0  0  0
    1.0802   -1.5395    0.0000 C   0  0  0  0  0  0  0  0  0  0  0  0
    1.6203   -2.1632    0.0000 C   0  0  0  0  0  0  0  0  0  0  0  0
    1.3502   -2.9427    0.0000 O   0  0  0  0  0  0  0  0  0  0  0  0
    2.4304   -2.0073    0.0000 N   0  0  0  0  0  0  0  0  0  0  0  0
    2.9705   -2.6309    0.0000 C   0  0  0  0  0  0  0  0  0  0  0  0
    3.7806   -2.4750    0.0000 C   0  0  0  0  0  0  0  0  0  0  0  0
    4.3207   -3.0986    0.0000 N   0  0  0  0  0  0  0  0  0  0  0  0
    5.1308   -2.9427    0.0000 C   0  0  0  0  0  0  0  0  0  0  0  0
    5.7220   -2.3673    0.0000 H   0  0  0  0  0  0  0  0  0  0  0  0
    5.0223   -2.1249    0.0000 H   0  0  0  0  0  0  0  0  0  0  0  0
    5.6709   -3.5664    0.0000 C   0  0  0  0  0  0  0  0  0  0  0  0
    6.4649   -3.7906    0.0000 H   0  0  0  0  0  0  0  0  0  0  0  0
    6.3249   -3.0635    0.0000 H   0  0  0  0  0  0  0  0  0  0  0  0
    5.4009   -4.3459    0.0000 O   0  0  0  0  0  0  0  0  0  0  0  0
    4.5908   -4.5018    0.0000 C   0  0  0  0  0  0  0  0  0  0  0  0
    3.9996   -5.0773    0.0000 H   0  0  0  0  0  0  0  0  0  0  0  0
    4.6993   -5.3197    0.0000 H   0  0  0  0  0  0  0  0  0  0  0  0
    4.0507   -3.8782    0.0000 C   0  0  0  0  0  0  0  0  0  0  0  0
    3.2567   -3.6539    0.0000 H   0  0  0  0  0  0  0  0  0  0  0  0
    3.3967   -4.3811    0.0000 H   0  0  0  0  0  0  0  0  0  0  0  0
    4.3718   -1.8996    0.0000 H   0  0  0  0  0  0  0  0  0  0  0  0
    3.6721   -1.6572    0.0000 H   0  0  0  0  0  0  0  0  0  0  0  0
    2.3793   -3.2063    0.0000 H   0  0  0  0  0  0  0  0  0  0  0  0
    3.0790   -3.4487    0.0000 H   0  0  0  0  0  0  0  0  0  0  0  0
    2.7004   -1.2277    0.0000 H   0  0  0  0  0  0  0  0  0  0  0  0
    1.3502   -0.7600    0.0000 C   0  0  0  0  0  0  0  0  0  0  0  0
    0.8101   -0.1363    0.0000 C   0  0  0  0  0  0  0  0  0  0  0  0
    1.6203    0.0196    0.0000 H   0  0  0  0  0  0  0  0  0  0  0  0
    1.0802    0.6432    0.0000 C   0  0  0  0  0  0  0  0  0  0  0  0
    0.9709    1.4609    0.0000 H   0  0  0  0  0  0  0  0  0  0  0  0
    1.8903    0.7991    0.0000 C   0  0  0  0  0  0  0  0  0  0  0  0
    2.1604    1.5787    0.0000 H   0  0  0  0  0  0  0  0  0  0  0  0
    2.4304    0.1755    0.0000 N   0  0  0  0  0  0  0  0  0  0  0  0
    2.1604   -0.6041    0.0000 C   0  0  0  0  0  0  0  0  0  0  0  0
    1.8903   -1.3836    0.0000 H   0  0  0  0  0  0  0  0  0  0  0  0
    0.8101   -2.3191    0.0000 H   0  0  0  0  0  0  0  0  0  0  0  0
   -1.0802   -1.2277    0.0000 C   0  0  0  0  0  0  0  0  0  0  0  0
   -1.8935   -1.3660    0.0000 H   0  0  0  0  0  0  0  0  0  0  0  0
   -1.6203   -0.6041    0.0000 C   0  0  0  0  0  0  0  0  0  0  0  0
   -0.8101   -0.4482    0.0000 H   0  0  0  0  0  0  0  0  0  0  0  0
   -1.8068    1.9628    0.0000 H   0  0  0  0  0  0  0  0  0  0  0  0
   -2.9705    2.0464    0.0000 H   0  0  0  0  0  0  0  0  0  0  0  0
   -3.0540    0.8827    0.0000 H   0  0  0  0  0  0  0  0  0  0  0  0
  1  2  1  0  0  0  0
  2  3  1  0  0  0  0
  3  4  1  0  0  0  0
  3  5  1  0  0  0  0
  3  6  1  0  0  0  0
  2  7  1  0  0  0  0
  7  8  1  0  0  0  0
  7  9  1  0  0  0  0
  7 10  1  0  0  0  0
  2 11  1  0  0  0  0
 11 12  2  0  0  0  0
 12 13  1  0  0  0  0
 12 14  1  0  0  0  0
 14 15  1  0  0  0  0
 14 16  2  0  0  0  0
 16 17  1  0  0  0  0
 17 18  1  0  0  0  0
 18 19  2  0  0  0  0
 18 20  1  0  0  0  0
 20 21  2  0  0  0  0
 21 22  1  0  0  0  0
 21 23  1  0  0  0  0
 23 24  1  0  0  0  0
 23 25  2  0  0  0  0
 25 26  1  0  0  0  0
 25 27  1  0  0  0  0
 20 27  1  0  0  0  0
 17 28  1  0  0  0  0
 28 29  1  0  0  0  0
 29 30  2  0  0  0  0
 29 31  1  0  0  0  0
 31 32  1  0  0  0  0
 32 33  1  0  0  0  0
 33 34  1  0  0  0  0
 34 35  1  0  0  0  0
 35 36  1  0  0  0  0
 35 37  1  0  0  0  0
 35 38  1  0  0  0  0
 38 39  1  0  0  0  0
 38 40  1  0  0  0  0
 38 41  1  0  0  0  0
 41 42  1  0  0  0  0
 42 43  1  0  0  0  0
 42 44  1  0  0  0  0
 42 45  1  0  0  0  0
 34 45  1  0  0  0  0
 45 46  1  0  0  0  0
 45 47  1  0  0  0  0
 33 48  1  0  0  0  0
 33 49  1  0  0  0  0
 32 50  1  0  0  0  0
 32 51  1  0  0  0  0
 31 52  1  0  0  0  0
 28 53  1  0  0  0  0
 53 54  2  0  0  0  0
 54 55  1  0  0  0  0
 54 56  1  0  0  0  0
 56 57  1  0  0  0  0
 56 58  2  0  0  0  0
 58 59  1  0  0  0  0
 58 60  1  0  0  0  0
 60 61  2  0  0  0  0
 53 61  1  0  0  0  0
 61 62  1  0  0  0  0
 28 63  1  0  0  0  0
 16 64  1  0  0  0  0
 64 65  1  0  0  0  0
 64 66  2  0  0  0  0
 11 66  1  0  0  0  0
 66 67  1  0  0  0  0
  1 68  1  0  0  0  0
  1 69  1  0  0  0  0
  1 70  1  0  0  0  0
M  END
> <Potency>
2.18774292479817

> <pIC50>
5.660003712000831

> <Outcome>
Active

> <is_active>
1

$$$$

  Mrv1921 08232120312D          

 39 42  0  0  0  0            999 V2000
    2.1434   -2.8875    0.0000 O   0  0  0  0  0  0  0  0  0  0  0  0
    1.4289   -2.4750    0.0000 C   0  0  0  0  0  0  0  0  0  0  0  0
    0.7145   -2.8875    0.0000 N   0  0  0  0  0  0  0  0  0  0  0  0
    0.7145   -3.7125    0.0000 C   0  0  0  0  0  0  0  0  0  0  0  0
    1.4289   -4.1250    0.0000 C   0  0  0  0  0  0  0  0  0  0  0  0
    2.1434   -3.7125    0.0000 H   0  0  0  0  0  0  0  0  0  0  0  0
    1.4289   -4.9500    0.0000 N   0  0  0  0  0  0  0  0  0  0  0  0
    0.7145   -5.3625    0.0000 C   0  0  0  0  0  0  0  0  0  0  0  0
    0.7145   -6.1875    0.0000 H   0  0  0  0  0  0  0  0  0  0  0  0
    0.0000   -4.9500    0.0000 C   0  0  0  0  0  0  0  0  0  0  0  0
   -0.7145   -5.3625    0.0000 C   0  0  0  0  0  0  0  0  0  0  0  0
   -1.4289   -4.9500    0.0000 C   0  0  0  0  0  0  0  0  0  0  0  0
   -1.4289   -4.1250    0.0000 C   0  0  0  0  0  0  0  0  0  0  0  0
   -0.7145   -3.7125    0.0000 C   0  0  0  0  0  0  0  0  0  0  0  0
   -0.7145   -2.8875    0.0000 H   0  0  0  0  0  0  0  0  0  0  0  0
    0.0000   -4.1250    0.0000 C   0  0  0  0  0  0  0  0  0  0  0  0
   -2.1434   -3.7125    0.0000 H   0  0  0  0  0  0  0  0  0  0  0  0
   -2.1434   -5.3625    0.0000 H   0  0  0  0  0  0  0  0  0  0  0  0
   -0.7145   -6.1875    0.0000 H   0  0  0  0  0  0  0  0  0  0  0  0
    0.0000   -2.4750    0.0000 H   0  0  0  0  0  0  0  0  0  0  0  0
    1.4289   -1.6500    0.0000 C   0  0  0  0  0  0  0  0  0  0  0  0
    0.7145   -1.2375    0.0000 C   0  0  0  0  0  0  0  0  0  0  0  0
   -0.1091   -1.2855    0.0000 H   0  0  0  0  0  0  0  0  0  0  0  0
    0.2611   -1.9268    0.0000 H   0  0  0  0  0  0  0  0  0  0  0  0
    0.7145   -0.4125    0.0000 C   0  0  0  0  0  0  0  0  0  0  0  0
    0.2611    0.2768    0.0000 H   0  0  0  0  0  0  0  0  0  0  0  0
   -0.1091   -0.3645    0.0000 H   0  0  0  0  0  0  0  0  0  0  0  0
    1.4289    0.0000    0.0000 O   0  0  0  0  0  0  0  0  0  0  0  0
    2.1434   -0.4125    0.0000 C   0  0  0  0  0  0  0  0  0  0  0  0
    2.8579    0.0000    0.0000 C   0  0  0  0  0  0  0  0  0  0  0  0
    3.5724   -0.4125    0.0000 C   0  0  0  0  0  0  0  0  0  0  0  0
    3.5724   -1.2375    0.0000 C   0  0  0  0  0  0  0  0  0  0  0  0
    4.2868   -1.6500    0.0000 Br  0  0  0  0  0  0  0  0  0  0  0  0
    2.8579   -1.6500    0.0000 C   0  0  0  0  0  0  0  0  0  0  0  0
    3.2704   -2.3645    0.0000 H   0  0  0  0  0  0  0  0  0  0  0  0
    2.1434   -1.2375    0.0000 C   0  0  0  0  0  0  0  0  0  0  0  0
    4.2868   -0.0000    0.0000 H   0  0  0  0  0  0  0  0  0  0  0  0
    2.8579    0.8250    0.0000 H   0  0  0  0  0  0  0  0  0  0  0  0
    2.1434   -2.0625    0.0000 H   0  0  0  0  0  0  0  0  0  0  0  0
  1  2  2  0  0  0  0
  2  3  1  0  0  0  0
  3  4  1  0  0  0  0
  4  5  2  0  0  0  0
  5  6  1  0  0  0  0
  5  7  1  0  0  0  0
  7  8  2  0  0  0  0
  8  9  1  0  0  0  0
  8 10  1  0  0  0  0
 10 11  2  0  0  0  0
 11 12  1  0  0  0  0
 12 13  2  0  0  0  0
 13 14  1  0  0  0  0
 14 15  1  0  0  0  0
 14 16  2  0  0  0  0
  4 16  1  0  0  0  0
 10 16  1  0  0  0  0
 13 17  1  0  0  0  0
 12 18  1  0  0  0  0
 11 19  1  0  0  0  0
  3 20  1  0  0  0  0
  2 21  1  0  0  0  0
 21 22  1  0  0  0  0
 22 23  1  0  0  0  0
 22 24  1  0  0  0  0
 22 25  1  0  0  0  0
 25 26  1  0  0  0  0
 25 27  1  0  0  0  0
 25 28  1  0  0  0  0
 28 29  1  0  0  0  0
 29 30  2  0  0  0  0
 30 31  1  0  0  0  0
 31 32  2  0  0  0  0
 32 33  1  0  0  0  0
 32 34  1  0  0  0  0
 34 35  1  0  0  0  0
 34 36  2  0  0  0  0
 21 36  1  0  0  0  0
 29 36  1  0  0  0  0
 31 37  1  0  0  0  0
 30 38  1  0  0  0  0
 21 39  1  0  0  0  0
M  END
> <Potency>
0.850902886213773

> <pIC50>
6.070120003238752

> <Outcome>
Active

> <is_active>
1

$$$$
